!- Windows Line endings 

Version,
    22.2;                     !- Version Identifier

SimulationControl,
    Yes,                      !- Do Zone Sizing Calculation
    Yes,                      !- Do System Sizing Calculation
    No,                       !- Do Plant Sizing Calculation
    Yes,                      !- Run Simulation for Sizing Periods
    Yes,                      !- Run Simulation for Weather File Run Periods
    ,                         !- Do HVAC Sizing Simulation for Sizing Periods
    ;                         !- Maximum Number of HVAC Sizing Simulation Passes

Building,
    Building 1,               !- Name
    0,                        !- North Axis
    ,                         !- Terrain
    ,                         !- Loads Convergence Tolerance Value
    ,                         !- Temperature Convergence Tolerance Value
    ,                         !- Solar Distribution
    ,                         !- Maximum Number of Warmup Days
    ;                         !- Minimum Number of Warmup Days

ShadowCalculation,
    PolygonClipping,          !- Shading Calculation Method
    Periodic,                 !- Shading Calculation Update Frequency Method
    20,                       !- Shading Calculation Update Frequency
    15000,                    !- Maximum Figures in Shadow Overlap Calculations
    SutherlandHodgman,        !- Polygon Clipping Algorithm
    512,                      !- Pixel Counting Resolution
    SimpleSkyDiffuseModeling,    !- Sky Diffuse Modeling Algorithm
    No,                       !- Output External Shading Calculation Results
    No,                       !- Disable SelfShading Within Shading Zone Groups
    No;                       !- Disable SelfShading From Shading Zone Groups to Other Zones

HeatBalanceAlgorithm,
    ConductionTransferFunction,    !- Algorithm
    200;                      !- Surface Temperature Upper Limit

Timestep,
    2;                        !- Number of Timesteps per Hour

Site:Location,
    Site 1,                   !- Name
    39.7653,                  !- Latitude
    39.7653,                  !- Longitude
    0,                        !- Time Zone
    0;                        !- Elevation

SizingPeriod:DesignDay,
    PARIS_ ORLY Ann Htg 99.6% Condns DB,    !- Name
    1,                        !- Month
    21,                       !- Day of Month
    WinterDesignDay,          !- Day Type
    -5.9,                     !- Maximum DryBulb Temperature
    0,                        !- Daily DryBulb Temperature Range
    DefaultMultipliers,       !- DryBulb Temperature Range Modifier Type
    ,                         !- DryBulb Temperature Range Modifier Day Schedule Name
    Wetbulb,                  !- Humidity Condition Type
    -5.9,                     !- Wetbulb or DewPoint at Maximum DryBulb
    ,                         !- Humidity Condition Day Schedule Name
    ,                         !- Humidity Ratio at Maximum DryBulb
    ,                         !- Enthalpy at Maximum DryBulb
    ,                         !- Daily WetBulb Temperature Range
    100177,                   !- Barometric Pressure
    3.3,                      !- Wind Speed
    60,                       !- Wind Direction
    No,                       !- Rain Indicator
    No,                       !- Snow Indicator
    No,                       !- Daylight Saving Time Indicator
    ASHRAEClearSky,           !- Solar Model Indicator
    ,                         !- Beam Solar Day Schedule Name
    ,                         !- Diffuse Solar Day Schedule Name
    ,                         !- ASHRAE Clear Sky Optical Depth for Beam Irradiance taub
    ,                         !- ASHRAE Clear Sky Optical Depth for Diffuse Irradiance taud
    0;                        !- Sky Clearness

SizingPeriod:DesignDay,
    PARIS_ ORLY Ann Htg 99% Condns DB,    !- Name
    1,                        !- Month
    21,                       !- Day of Month
    WinterDesignDay,          !- Day Type
    -3.8,                     !- Maximum DryBulb Temperature
    0,                        !- Daily DryBulb Temperature Range
    DefaultMultipliers,       !- DryBulb Temperature Range Modifier Type
    ,                         !- DryBulb Temperature Range Modifier Day Schedule Name
    Wetbulb,                  !- Humidity Condition Type
    -3.8,                     !- Wetbulb or DewPoint at Maximum DryBulb
    ,                         !- Humidity Condition Day Schedule Name
    ,                         !- Humidity Ratio at Maximum DryBulb
    ,                         !- Enthalpy at Maximum DryBulb
    ,                         !- Daily WetBulb Temperature Range
    100177,                   !- Barometric Pressure
    3.3,                      !- Wind Speed
    60,                       !- Wind Direction
    No,                       !- Rain Indicator
    No,                       !- Snow Indicator
    No,                       !- Daylight Saving Time Indicator
    ASHRAEClearSky,           !- Solar Model Indicator
    ,                         !- Beam Solar Day Schedule Name
    ,                         !- Diffuse Solar Day Schedule Name
    ,                         !- ASHRAE Clear Sky Optical Depth for Beam Irradiance taub
    ,                         !- ASHRAE Clear Sky Optical Depth for Diffuse Irradiance taud
    0;                        !- Sky Clearness

SizingPeriod:DesignDay,
    PARIS_ ORLY Ann Hum_n 99.6% Condns DP=>MCDB,    !- Name
    1,                        !- Month
    21,                       !- Day of Month
    WinterDesignDay,          !- Day Type
    -4.2,                     !- Maximum DryBulb Temperature
    0,                        !- Daily DryBulb Temperature Range
    DefaultMultipliers,       !- DryBulb Temperature Range Modifier Type
    ,                         !- DryBulb Temperature Range Modifier Day Schedule Name
    Dewpoint,                 !- Humidity Condition Type
    -10.8,                    !- Wetbulb or DewPoint at Maximum DryBulb
    ,                         !- Humidity Condition Day Schedule Name
    ,                         !- Humidity Ratio at Maximum DryBulb
    ,                         !- Enthalpy at Maximum DryBulb
    ,                         !- Daily WetBulb Temperature Range
    100177,                   !- Barometric Pressure
    3.3,                      !- Wind Speed
    60,                       !- Wind Direction
    No,                       !- Rain Indicator
    No,                       !- Snow Indicator
    No,                       !- Daylight Saving Time Indicator
    ASHRAEClearSky,           !- Solar Model Indicator
    ,                         !- Beam Solar Day Schedule Name
    ,                         !- Diffuse Solar Day Schedule Name
    ,                         !- ASHRAE Clear Sky Optical Depth for Beam Irradiance taub
    ,                         !- ASHRAE Clear Sky Optical Depth for Diffuse Irradiance taud
    0;                        !- Sky Clearness

SizingPeriod:DesignDay,
    PARIS_ ORLY Ann Hum_n 99% Condns DP=>MCDB,    !- Name
    1,                        !- Month
    21,                       !- Day of Month
    WinterDesignDay,          !- Day Type
    -2,                       !- Maximum DryBulb Temperature
    0,                        !- Daily DryBulb Temperature Range
    DefaultMultipliers,       !- DryBulb Temperature Range Modifier Type
    ,                         !- DryBulb Temperature Range Modifier Day Schedule Name
    Dewpoint,                 !- Humidity Condition Type
    -7.9,                     !- Wetbulb or DewPoint at Maximum DryBulb
    ,                         !- Humidity Condition Day Schedule Name
    ,                         !- Humidity Ratio at Maximum DryBulb
    ,                         !- Enthalpy at Maximum DryBulb
    ,                         !- Daily WetBulb Temperature Range
    100177,                   !- Barometric Pressure
    3.3,                      !- Wind Speed
    60,                       !- Wind Direction
    No,                       !- Rain Indicator
    No,                       !- Snow Indicator
    No,                       !- Daylight Saving Time Indicator
    ASHRAEClearSky,           !- Solar Model Indicator
    ,                         !- Beam Solar Day Schedule Name
    ,                         !- Diffuse Solar Day Schedule Name
    ,                         !- ASHRAE Clear Sky Optical Depth for Beam Irradiance taub
    ,                         !- ASHRAE Clear Sky Optical Depth for Diffuse Irradiance taud
    0;                        !- Sky Clearness

SizingPeriod:DesignDay,
    PARIS_ ORLY Ann Htg Wind 99.6% Condns WS=>MCDB,    !- Name
    1,                        !- Month
    21,                       !- Day of Month
    WinterDesignDay,          !- Day Type
    9.5,                      !- Maximum DryBulb Temperature
    0,                        !- Daily DryBulb Temperature Range
    DefaultMultipliers,       !- DryBulb Temperature Range Modifier Type
    ,                         !- DryBulb Temperature Range Modifier Day Schedule Name
    Wetbulb,                  !- Humidity Condition Type
    9.5,                      !- Wetbulb or DewPoint at Maximum DryBulb
    ,                         !- Humidity Condition Day Schedule Name
    ,                         !- Humidity Ratio at Maximum DryBulb
    ,                         !- Enthalpy at Maximum DryBulb
    ,                         !- Daily WetBulb Temperature Range
    100177,                   !- Barometric Pressure
    14.9,                     !- Wind Speed
    60,                       !- Wind Direction
    No,                       !- Rain Indicator
    No,                       !- Snow Indicator
    No,                       !- Daylight Saving Time Indicator
    ASHRAEClearSky,           !- Solar Model Indicator
    ,                         !- Beam Solar Day Schedule Name
    ,                         !- Diffuse Solar Day Schedule Name
    ,                         !- ASHRAE Clear Sky Optical Depth for Beam Irradiance taub
    ,                         !- ASHRAE Clear Sky Optical Depth for Diffuse Irradiance taud
    0;                        !- Sky Clearness

SizingPeriod:DesignDay,
    PARIS_ ORLY Ann Htg Wind 99% Condns WS=>MCDB,    !- Name
    1,                        !- Month
    21,                       !- Day of Month
    WinterDesignDay,          !- Day Type
    9,                        !- Maximum DryBulb Temperature
    0,                        !- Daily DryBulb Temperature Range
    DefaultMultipliers,       !- DryBulb Temperature Range Modifier Type
    ,                         !- DryBulb Temperature Range Modifier Day Schedule Name
    Wetbulb,                  !- Humidity Condition Type
    9,                        !- Wetbulb or DewPoint at Maximum DryBulb
    ,                         !- Humidity Condition Day Schedule Name
    ,                         !- Humidity Ratio at Maximum DryBulb
    ,                         !- Enthalpy at Maximum DryBulb
    ,                         !- Daily WetBulb Temperature Range
    100177,                   !- Barometric Pressure
    12.9,                     !- Wind Speed
    60,                       !- Wind Direction
    No,                       !- Rain Indicator
    No,                       !- Snow Indicator
    No,                       !- Daylight Saving Time Indicator
    ASHRAEClearSky,           !- Solar Model Indicator
    ,                         !- Beam Solar Day Schedule Name
    ,                         !- Diffuse Solar Day Schedule Name
    ,                         !- ASHRAE Clear Sky Optical Depth for Beam Irradiance taub
    ,                         !- ASHRAE Clear Sky Optical Depth for Diffuse Irradiance taud
    0;                        !- Sky Clearness

SizingPeriod:DesignDay,
    PARIS_ ORLY Ann Clg .4% Condns DB=>MWB,    !- Name
    7,                        !- Month
    21,                       !- Day of Month
    SummerDesignDay,          !- Day Type
    30.9,                     !- Maximum DryBulb Temperature
    10.1,                     !- Daily DryBulb Temperature Range
    DefaultMultipliers,       !- DryBulb Temperature Range Modifier Type
    ,                         !- DryBulb Temperature Range Modifier Day Schedule Name
    Wetbulb,                  !- Humidity Condition Type
    20.1,                     !- Wetbulb or DewPoint at Maximum DryBulb
    ,                         !- Humidity Condition Day Schedule Name
    ,                         !- Humidity Ratio at Maximum DryBulb
    ,                         !- Enthalpy at Maximum DryBulb
    ,                         !- Daily WetBulb Temperature Range
    100177,                   !- Barometric Pressure
    3.6,                      !- Wind Speed
    100,                      !- Wind Direction
    No,                       !- Rain Indicator
    No,                       !- Snow Indicator
    No,                       !- Daylight Saving Time Indicator
    ASHRAETau,                !- Solar Model Indicator
    ,                         !- Beam Solar Day Schedule Name
    ,                         !- Diffuse Solar Day Schedule Name
    0.492,                    !- ASHRAE Clear Sky Optical Depth for Beam Irradiance taub
    1.841;                    !- ASHRAE Clear Sky Optical Depth for Diffuse Irradiance taud

SizingPeriod:DesignDay,
    PARIS_ ORLY Ann Clg 1% Condns DB=>MWB,    !- Name
    7,                        !- Month
    21,                       !- Day of Month
    SummerDesignDay,          !- Day Type
    28.9,                     !- Maximum DryBulb Temperature
    10.1,                     !- Daily DryBulb Temperature Range
    DefaultMultipliers,       !- DryBulb Temperature Range Modifier Type
    ,                         !- DryBulb Temperature Range Modifier Day Schedule Name
    Wetbulb,                  !- Humidity Condition Type
    19.5,                     !- Wetbulb or DewPoint at Maximum DryBulb
    ,                         !- Humidity Condition Day Schedule Name
    ,                         !- Humidity Ratio at Maximum DryBulb
    ,                         !- Enthalpy at Maximum DryBulb
    ,                         !- Daily WetBulb Temperature Range
    100177,                   !- Barometric Pressure
    3.6,                      !- Wind Speed
    100,                      !- Wind Direction
    No,                       !- Rain Indicator
    No,                       !- Snow Indicator
    No,                       !- Daylight Saving Time Indicator
    ASHRAETau,                !- Solar Model Indicator
    ,                         !- Beam Solar Day Schedule Name
    ,                         !- Diffuse Solar Day Schedule Name
    0.492,                    !- ASHRAE Clear Sky Optical Depth for Beam Irradiance taub
    1.841;                    !- ASHRAE Clear Sky Optical Depth for Diffuse Irradiance taud

SizingPeriod:DesignDay,
    PARIS_ ORLY Ann Clg 2% Condns DB=>MWB,    !- Name
    7,                        !- Month
    21,                       !- Day of Month
    SummerDesignDay,          !- Day Type
    27,                       !- Maximum DryBulb Temperature
    10.1,                     !- Daily DryBulb Temperature Range
    DefaultMultipliers,       !- DryBulb Temperature Range Modifier Type
    ,                         !- DryBulb Temperature Range Modifier Day Schedule Name
    Wetbulb,                  !- Humidity Condition Type
    18.7,                     !- Wetbulb or DewPoint at Maximum DryBulb
    ,                         !- Humidity Condition Day Schedule Name
    ,                         !- Humidity Ratio at Maximum DryBulb
    ,                         !- Enthalpy at Maximum DryBulb
    ,                         !- Daily WetBulb Temperature Range
    100177,                   !- Barometric Pressure
    3.6,                      !- Wind Speed
    100,                      !- Wind Direction
    No,                       !- Rain Indicator
    No,                       !- Snow Indicator
    No,                       !- Daylight Saving Time Indicator
    ASHRAETau,                !- Solar Model Indicator
    ,                         !- Beam Solar Day Schedule Name
    ,                         !- Diffuse Solar Day Schedule Name
    0.492,                    !- ASHRAE Clear Sky Optical Depth for Beam Irradiance taub
    1.841;                    !- ASHRAE Clear Sky Optical Depth for Diffuse Irradiance taud

SizingPeriod:DesignDay,
    PARIS_ ORLY Ann Clg .4% Condns WB=>MDB,    !- Name
    7,                        !- Month
    21,                       !- Day of Month
    SummerDesignDay,          !- Day Type
    28.3,                     !- Maximum DryBulb Temperature
    10.1,                     !- Daily DryBulb Temperature Range
    DefaultMultipliers,       !- DryBulb Temperature Range Modifier Type
    ,                         !- DryBulb Temperature Range Modifier Day Schedule Name
    Wetbulb,                  !- Humidity Condition Type
    21.4,                     !- Wetbulb or DewPoint at Maximum DryBulb
    ,                         !- Humidity Condition Day Schedule Name
    ,                         !- Humidity Ratio at Maximum DryBulb
    ,                         !- Enthalpy at Maximum DryBulb
    ,                         !- Daily WetBulb Temperature Range
    100177,                   !- Barometric Pressure
    3.6,                      !- Wind Speed
    100,                      !- Wind Direction
    No,                       !- Rain Indicator
    No,                       !- Snow Indicator
    No,                       !- Daylight Saving Time Indicator
    ASHRAETau,                !- Solar Model Indicator
    ,                         !- Beam Solar Day Schedule Name
    ,                         !- Diffuse Solar Day Schedule Name
    0.492,                    !- ASHRAE Clear Sky Optical Depth for Beam Irradiance taub
    1.841;                    !- ASHRAE Clear Sky Optical Depth for Diffuse Irradiance taud

SizingPeriod:DesignDay,
    PARIS_ ORLY Ann Clg 1% Condns WB=>MDB,    !- Name
    7,                        !- Month
    21,                       !- Day of Month
    SummerDesignDay,          !- Day Type
    26.7,                     !- Maximum DryBulb Temperature
    10.1,                     !- Daily DryBulb Temperature Range
    DefaultMultipliers,       !- DryBulb Temperature Range Modifier Type
    ,                         !- DryBulb Temperature Range Modifier Day Schedule Name
    Wetbulb,                  !- Humidity Condition Type
    20.5,                     !- Wetbulb or DewPoint at Maximum DryBulb
    ,                         !- Humidity Condition Day Schedule Name
    ,                         !- Humidity Ratio at Maximum DryBulb
    ,                         !- Enthalpy at Maximum DryBulb
    ,                         !- Daily WetBulb Temperature Range
    100177,                   !- Barometric Pressure
    3.6,                      !- Wind Speed
    100,                      !- Wind Direction
    No,                       !- Rain Indicator
    No,                       !- Snow Indicator
    No,                       !- Daylight Saving Time Indicator
    ASHRAETau,                !- Solar Model Indicator
    ,                         !- Beam Solar Day Schedule Name
    ,                         !- Diffuse Solar Day Schedule Name
    0.492,                    !- ASHRAE Clear Sky Optical Depth for Beam Irradiance taub
    1.841;                    !- ASHRAE Clear Sky Optical Depth for Diffuse Irradiance taud

SizingPeriod:DesignDay,
    PARIS_ ORLY Ann Clg 2% Condns WB=>MDB,    !- Name
    7,                        !- Month
    21,                       !- Day of Month
    SummerDesignDay,          !- Day Type
    25.3,                     !- Maximum DryBulb Temperature
    10.1,                     !- Daily DryBulb Temperature Range
    DefaultMultipliers,       !- DryBulb Temperature Range Modifier Type
    ,                         !- DryBulb Temperature Range Modifier Day Schedule Name
    Wetbulb,                  !- Humidity Condition Type
    19.6,                     !- Wetbulb or DewPoint at Maximum DryBulb
    ,                         !- Humidity Condition Day Schedule Name
    ,                         !- Humidity Ratio at Maximum DryBulb
    ,                         !- Enthalpy at Maximum DryBulb
    ,                         !- Daily WetBulb Temperature Range
    100177,                   !- Barometric Pressure
    3.6,                      !- Wind Speed
    100,                      !- Wind Direction
    No,                       !- Rain Indicator
    No,                       !- Snow Indicator
    No,                       !- Daylight Saving Time Indicator
    ASHRAETau,                !- Solar Model Indicator
    ,                         !- Beam Solar Day Schedule Name
    ,                         !- Diffuse Solar Day Schedule Name
    0.492,                    !- ASHRAE Clear Sky Optical Depth for Beam Irradiance taub
    1.841;                    !- ASHRAE Clear Sky Optical Depth for Diffuse Irradiance taud

SizingPeriod:DesignDay,
    PARIS_ ORLY Ann Clg .4% Condns DP=>MDB,    !- Name
    7,                        !- Month
    21,                       !- Day of Month
    SummerDesignDay,          !- Day Type
    23.8,                     !- Maximum DryBulb Temperature
    10.1,                     !- Daily DryBulb Temperature Range
    DefaultMultipliers,       !- DryBulb Temperature Range Modifier Type
    ,                         !- DryBulb Temperature Range Modifier Day Schedule Name
    Dewpoint,                 !- Humidity Condition Type
    19.2,                     !- Wetbulb or DewPoint at Maximum DryBulb
    ,                         !- Humidity Condition Day Schedule Name
    ,                         !- Humidity Ratio at Maximum DryBulb
    ,                         !- Enthalpy at Maximum DryBulb
    ,                         !- Daily WetBulb Temperature Range
    100177,                   !- Barometric Pressure
    3.6,                      !- Wind Speed
    100,                      !- Wind Direction
    No,                       !- Rain Indicator
    No,                       !- Snow Indicator
    No,                       !- Daylight Saving Time Indicator
    ASHRAETau,                !- Solar Model Indicator
    ,                         !- Beam Solar Day Schedule Name
    ,                         !- Diffuse Solar Day Schedule Name
    0.492,                    !- ASHRAE Clear Sky Optical Depth for Beam Irradiance taub
    1.841;                    !- ASHRAE Clear Sky Optical Depth for Diffuse Irradiance taud

SizingPeriod:DesignDay,
    PARIS_ ORLY Ann Clg 1% Condns DP=>MDB,    !- Name
    7,                        !- Month
    21,                       !- Day of Month
    SummerDesignDay,          !- Day Type
    22.9,                     !- Maximum DryBulb Temperature
    10.1,                     !- Daily DryBulb Temperature Range
    DefaultMultipliers,       !- DryBulb Temperature Range Modifier Type
    ,                         !- DryBulb Temperature Range Modifier Day Schedule Name
    Dewpoint,                 !- Humidity Condition Type
    18.2,                     !- Wetbulb or DewPoint at Maximum DryBulb
    ,                         !- Humidity Condition Day Schedule Name
    ,                         !- Humidity Ratio at Maximum DryBulb
    ,                         !- Enthalpy at Maximum DryBulb
    ,                         !- Daily WetBulb Temperature Range
    100177,                   !- Barometric Pressure
    3.6,                      !- Wind Speed
    100,                      !- Wind Direction
    No,                       !- Rain Indicator
    No,                       !- Snow Indicator
    No,                       !- Daylight Saving Time Indicator
    ASHRAETau,                !- Solar Model Indicator
    ,                         !- Beam Solar Day Schedule Name
    ,                         !- Diffuse Solar Day Schedule Name
    0.492,                    !- ASHRAE Clear Sky Optical Depth for Beam Irradiance taub
    1.841;                    !- ASHRAE Clear Sky Optical Depth for Diffuse Irradiance taud

SizingPeriod:DesignDay,
    PARIS_ ORLY Ann Clg 2% Condns DP=>MDB,    !- Name
    7,                        !- Month
    21,                       !- Day of Month
    SummerDesignDay,          !- Day Type
    22.2,                     !- Maximum DryBulb Temperature
    10.1,                     !- Daily DryBulb Temperature Range
    DefaultMultipliers,       !- DryBulb Temperature Range Modifier Type
    ,                         !- DryBulb Temperature Range Modifier Day Schedule Name
    Dewpoint,                 !- Humidity Condition Type
    17.3,                     !- Wetbulb or DewPoint at Maximum DryBulb
    ,                         !- Humidity Condition Day Schedule Name
    ,                         !- Humidity Ratio at Maximum DryBulb
    ,                         !- Enthalpy at Maximum DryBulb
    ,                         !- Daily WetBulb Temperature Range
    100177,                   !- Barometric Pressure
    3.6,                      !- Wind Speed
    100,                      !- Wind Direction
    No,                       !- Rain Indicator
    No,                       !- Snow Indicator
    No,                       !- Daylight Saving Time Indicator
    ASHRAETau,                !- Solar Model Indicator
    ,                         !- Beam Solar Day Schedule Name
    ,                         !- Diffuse Solar Day Schedule Name
    0.492,                    !- ASHRAE Clear Sky Optical Depth for Beam Irradiance taub
    1.841;                    !- ASHRAE Clear Sky Optical Depth for Diffuse Irradiance taud

SizingPeriod:DesignDay,
    PARIS_ ORLY Ann Clg .4% Condns Enth=>MDB,    !- Name
    7,                        !- Month
    21,                       !- Day of Month
    SummerDesignDay,          !- Day Type
    28.4,                     !- Maximum DryBulb Temperature
    10.1,                     !- Daily DryBulb Temperature Range
    DefaultMultipliers,       !- DryBulb Temperature Range Modifier Type
    ,                         !- DryBulb Temperature Range Modifier Day Schedule Name
    Enthalpy,                 !- Humidity Condition Type
    ,                         !- Wetbulb or DewPoint at Maximum DryBulb
    ,                         !- Humidity Condition Day Schedule Name
    ,                         !- Humidity Ratio at Maximum DryBulb
    62600,                    !- Enthalpy at Maximum DryBulb
    ,                         !- Daily WetBulb Temperature Range
    100177,                   !- Barometric Pressure
    3.6,                      !- Wind Speed
    100,                      !- Wind Direction
    No,                       !- Rain Indicator
    No,                       !- Snow Indicator
    No,                       !- Daylight Saving Time Indicator
    ASHRAETau,                !- Solar Model Indicator
    ,                         !- Beam Solar Day Schedule Name
    ,                         !- Diffuse Solar Day Schedule Name
    0.492,                    !- ASHRAE Clear Sky Optical Depth for Beam Irradiance taub
    1.841;                    !- ASHRAE Clear Sky Optical Depth for Diffuse Irradiance taud

SizingPeriod:DesignDay,
    PARIS_ ORLY Ann Clg 1% Condns Enth=>MDB,    !- Name
    7,                        !- Month
    21,                       !- Day of Month
    SummerDesignDay,          !- Day Type
    26.9,                     !- Maximum DryBulb Temperature
    10.1,                     !- Daily DryBulb Temperature Range
    DefaultMultipliers,       !- DryBulb Temperature Range Modifier Type
    ,                         !- DryBulb Temperature Range Modifier Day Schedule Name
    Enthalpy,                 !- Humidity Condition Type
    ,                         !- Wetbulb or DewPoint at Maximum DryBulb
    ,                         !- Humidity Condition Day Schedule Name
    ,                         !- Humidity Ratio at Maximum DryBulb
    59200,                    !- Enthalpy at Maximum DryBulb
    ,                         !- Daily WetBulb Temperature Range
    100177,                   !- Barometric Pressure
    3.6,                      !- Wind Speed
    100,                      !- Wind Direction
    No,                       !- Rain Indicator
    No,                       !- Snow Indicator
    No,                       !- Daylight Saving Time Indicator
    ASHRAETau,                !- Solar Model Indicator
    ,                         !- Beam Solar Day Schedule Name
    ,                         !- Diffuse Solar Day Schedule Name
    0.492,                    !- ASHRAE Clear Sky Optical Depth for Beam Irradiance taub
    1.841;                    !- ASHRAE Clear Sky Optical Depth for Diffuse Irradiance taud

SizingPeriod:DesignDay,
    PARIS_ ORLY Ann Clg 2% Condns Enth=>MDB,    !- Name
    7,                        !- Month
    21,                       !- Day of Month
    SummerDesignDay,          !- Day Type
    25.2,                     !- Maximum DryBulb Temperature
    10.1,                     !- Daily DryBulb Temperature Range
    DefaultMultipliers,       !- DryBulb Temperature Range Modifier Type
    ,                         !- DryBulb Temperature Range Modifier Day Schedule Name
    Enthalpy,                 !- Humidity Condition Type
    ,                         !- Wetbulb or DewPoint at Maximum DryBulb
    ,                         !- Humidity Condition Day Schedule Name
    ,                         !- Humidity Ratio at Maximum DryBulb
    56100,                    !- Enthalpy at Maximum DryBulb
    ,                         !- Daily WetBulb Temperature Range
    100177,                   !- Barometric Pressure
    3.6,                      !- Wind Speed
    100,                      !- Wind Direction
    No,                       !- Rain Indicator
    No,                       !- Snow Indicator
    No,                       !- Daylight Saving Time Indicator
    ASHRAETau,                !- Solar Model Indicator
    ,                         !- Beam Solar Day Schedule Name
    ,                         !- Diffuse Solar Day Schedule Name
    0.492,                    !- ASHRAE Clear Sky Optical Depth for Beam Irradiance taub
    1.841;                    !- ASHRAE Clear Sky Optical Depth for Diffuse Irradiance taud

RunPeriod,
    Run Period 1,             !- Name
    1,                        !- Begin Month
    1,                        !- Begin Day of Month
    2009,                     !- Begin Year
    12,                       !- End Month
    31,                       !- End Day of Month
    2009,                     !- End Year
    Thursday,                 !- Day of Week for Start Day
    No,                       !- Use Weather File Holidays and Special Days
    No,                       !- Use Weather File Daylight Saving Period
    No,                       !- Apply Weekend Holiday Rule
    Yes,                      !- Use Weather File Rain Indicators
    Yes;                      !- Use Weather File Snow Indicators

ScheduleTypeLimits,
    Thermal Zone 1 Thermostat Schedule Type Limits,    !- Name
    0,                        !- Lower Limit Value
    4,                        !- Upper Limit Value
    DISCRETE;                 !- Numeric Type

ScheduleTypeLimits,
    Temperature,              !- Name
    ,                         !- Lower Limit Value
    ,                         !- Upper Limit Value
    Continuous,               !- Numeric Type
    temperature;              !- Unit Type

ScheduleTypeLimits,
    ActivityLevel,            !- Name
    0,                        !- Lower Limit Value
    ,                         !- Upper Limit Value
    Continuous,               !- Numeric Type
    activitylevel;            !- Unit Type

ScheduleTypeLimits,
    Capacity,                 !- Name
    0,                        !- Lower Limit Value
    ,                         !- Upper Limit Value
    Continuous,               !- Numeric Type
    capacity;                 !- Unit Type

ScheduleTypeLimits,
    Any Number;               !- Name

ScheduleTypeLimits,
    DeltaTemperature,         !- Name
    ,                         !- Lower Limit Value
    ,                         !- Upper Limit Value
    Continuous,               !- Numeric Type
    deltatemperature;         !- Unit Type

ScheduleTypeLimits,
    Dimensionless,            !- Name
    ,                         !- Lower Limit Value
    ,                         !- Upper Limit Value
    Continuous;               !- Numeric Type

ScheduleTypeLimits,
    Dimensionless 1,          !- Name
    -1,                       !- Lower Limit Value
    1,                        !- Upper Limit Value
    Continuous;               !- Numeric Type

ScheduleTypeLimits,
    Dimensionless 2,          !- Name
    0,                        !- Lower Limit Value
    ,                         !- Upper Limit Value
    Continuous;               !- Numeric Type

ScheduleTypeLimits,
    Dimensionless 3,          !- Name
    0.1,                      !- Lower Limit Value
    1000,                     !- Upper Limit Value
    Continuous;               !- Numeric Type

ScheduleTypeLimits,
    Dimensionless 4,          !- Name
    0,                        !- Lower Limit Value
    1,                        !- Upper Limit Value
    Continuous,               !- Numeric Type
    dimensionless;            !- Unit Type

ScheduleTypeLimits,
    Fractional,               !- Name
    0,                        !- Lower Limit Value
    1,                        !- Upper Limit Value
    Continuous;               !- Numeric Type

ScheduleTypeLimits,
    Integer,                  !- Name
    0,                        !- Lower Limit Value
    4,                        !- Upper Limit Value
    Discrete;                 !- Numeric Type

ScheduleTypeLimits,
    OnOff,                    !- Name
    0,                        !- Lower Limit Value
    1,                        !- Upper Limit Value
    Discrete,                 !- Numeric Type
    availability;             !- Unit Type

ScheduleTypeLimits,
    OnOff hvac_library,       !- Name
    0,                        !- Lower Limit Value
    1,                        !- Upper Limit Value
    Discrete,                 !- Numeric Type
    availability;             !- Unit Type

ScheduleTypeLimits,
    Percent,                  !- Name
    0,                        !- Lower Limit Value
    100,                      !- Upper Limit Value
    Continuous,               !- Numeric Type
    percent;                  !- Unit Type

ScheduleTypeLimits,
    Temperature 1,            !- Name
    ,                         !- Lower Limit Value
    0,                        !- Upper Limit Value
    Continuous,               !- Numeric Type
    temperature;              !- Unit Type

ScheduleTypeLimits,
    Temperature 2,            !- Name
    0,                        !- Lower Limit Value
    ,                         !- Upper Limit Value
    Continuous,               !- Numeric Type
    temperature;              !- Unit Type

ScheduleTypeLimits,
    Temperature 3,            !- Name
    0,                        !- Lower Limit Value
    100,                      !- Upper Limit Value
    Continuous,               !- Numeric Type
    temperature;              !- Unit Type

ScheduleTypeLimits,
    Velocity,                 !- Name
    0,                        !- Lower Limit Value
    ,                         !- Upper Limit Value
    Continuous,               !- Numeric Type
    velocity;                 !- Unit Type

Schedule:Day:Interval,
    Schedule Day 1,           !- Name
    Temperature,              !- Schedule Type Limits Name
    No,                       !- Interpolate to Timestep
    24:00,                    !- Time 1
    23.5;                     !- Value Until Time 1

Schedule:Day:Interval,
    Deck_Temperature_Default,    !- Name
    Temperature,              !- Schedule Type Limits Name
    No,                       !- Interpolate to Timestep
    24:00,                    !- Time 1
    12.8;                     !- Value Until Time 1

Schedule:Day:Interval,
    Deck_Temperature_Summer_Design_Day,    !- Name
    Temperature,              !- Schedule Type Limits Name
    No,                       !- Interpolate to Timestep
    24:00,                    !- Time 1
    12.8;                     !- Value Until Time 1

Schedule:Day:Interval,
    Deck_Temperature_Winter_Design_Day,    !- Name
    Temperature,              !- Schedule Type Limits Name
    No,                       !- Interpolate to Timestep
    24:00,                    !- Time 1
    12.8;                     !- Value Until Time 1

Schedule:Week:Daily,
    CLG Week Rule - Jan1-Dec31,    !- Name
    Schedule Day 1,           !- Sunday ScheduleDay Name
    Schedule Day 1,           !- Monday ScheduleDay Name
    Schedule Day 1,           !- Tuesday ScheduleDay Name
    Schedule Day 1,           !- Wednesday ScheduleDay Name
    Schedule Day 1,           !- Thursday ScheduleDay Name
    Schedule Day 1,           !- Friday ScheduleDay Name
    Schedule Day 1,           !- Saturday ScheduleDay Name
    Schedule Day 1,           !- Holiday ScheduleDay Name
    Schedule Day 1,           !- SummerDesignDay ScheduleDay Name
    Schedule Day 1,           !- WinterDesignDay ScheduleDay Name
    Schedule Day 1,           !- CustomDay1 ScheduleDay Name
    Schedule Day 1;           !- CustomDay2 ScheduleDay Name

Schedule:Week:Daily,
    Deck_Temperature Week Rule - Jan1-Dec31,    !- Name
    Deck_Temperature_Default,    !- Sunday ScheduleDay Name
    Deck_Temperature_Default,    !- Monday ScheduleDay Name
    Deck_Temperature_Default,    !- Tuesday ScheduleDay Name
    Deck_Temperature_Default,    !- Wednesday ScheduleDay Name
    Deck_Temperature_Default,    !- Thursday ScheduleDay Name
    Deck_Temperature_Default,    !- Friday ScheduleDay Name
    Deck_Temperature_Default,    !- Saturday ScheduleDay Name
    Deck_Temperature_Default,    !- Holiday ScheduleDay Name
    Deck_Temperature_Summer_Design_Day,    !- SummerDesignDay ScheduleDay Name
    Deck_Temperature_Winter_Design_Day,    !- WinterDesignDay ScheduleDay Name
    Deck_Temperature_Default,    !- CustomDay1 ScheduleDay Name
    Deck_Temperature_Default;    !- CustomDay2 ScheduleDay Name

Schedule:Year,
    CLG,                      !- Name
    Temperature,              !- Schedule Type Limits Name
    CLG Week Rule - Jan1-Dec31,    !- ScheduleWeek Name 1
    1,                        !- Start Month 1
    1,                        !- Start Day 1
    12,                       !- End Month 1
    31;                       !- End Day 1

Schedule:Year,
    Deck_Temperature,         !- Name
    Temperature,              !- Schedule Type Limits Name
    Deck_Temperature Week Rule - Jan1-Dec31,    !- ScheduleWeek Name 1
    1,                        !- Start Month 1
    1,                        !- Start Day 1
    12,                       !- End Month 1
    31;                       !- End Day 1

Schedule:Compact,
    Thermal Zone 1 Thermostat Schedule,    !- Name
    Thermal Zone 1 Thermostat Schedule Type Limits,    !- Schedule Type Limits Name
    Through: 12/31,           !- Field 1
    For: AllDays,             !- Field 2
    Until: 24:00,             !- Field 3
    2;                        !- Field 4

Schedule:Constant,
    Always On Discrete hvac_library,    !- Name
    OnOff hvac_library,       !- Schedule Type Limits Name
    1;                        !- Hourly Value

Schedule:Constant,
    Always On Discrete,       !- Name
    OnOff,                    !- Schedule Type Limits Name
    1;                        !- Hourly Value

Schedule:Constant,
    Always Off Discrete,      !- Name
    ,                         !- Schedule Type Limits Name
    0;                        !- Hourly Value

Schedule:Constant,
    Always On Continuous,     !- Name
    ,                         !- Schedule Type Limits Name
    1;                        !- Hourly Value

MATERIAL,
    MAT-CC05 4 HW CONCRETE,    !- Name
    Rough,                    !- Roughness
    0.1016,                   !- Thickness
    1.311,                    !- Conductivity
    2240,                     !- Density
    836.800000000001,         !- Specific Heat
    0.9,                      !- Thermal Absorptance
    0.85,                     !- Solar Absorptance
    0.85;                     !- Visible Absorptance

MATERIAL,
    Roof Membrane,            !- Name
    VeryRough,                !- Roughness
    0.0095,                   !- Thickness
    0.16,                     !- Conductivity
    1121.29,                  !- Density
    1460,                     !- Specific Heat
    0.9,                      !- Thermal Absorptance
    0.7,                      !- Solar Absorptance
    0.7;                      !- Visible Absorptance

MATERIAL,
    Roof Insulation [21],     !- Name
    MediumRough,              !- Roughness
    0.2105,                   !- Thickness
    0.049,                    !- Conductivity
    265,                      !- Density
    836.800000000001,         !- Specific Heat
    0.9,                      !- Thermal Absorptance
    0.7,                      !- Solar Absorptance
    0.7;                      !- Visible Absorptance

MATERIAL,
    Metal Decking,            !- Name
    MediumSmooth,             !- Roughness
    0.0015,                   !- Thickness
    45.006,                   !- Conductivity
    7680,                     !- Density
    418.4,                    !- Specific Heat
    0.9,                      !- Thermal Absorptance
    0.6,                      !- Solar Absorptance
    0.6;                      !- Visible Absorptance

MATERIAL,
    G01a 19mm gypsum board,    !- Name
    MediumSmooth,             !- Roughness
    0.019,                    !- Thickness
    0.16,                     !- Conductivity
    800,                      !- Density
    1090,                     !- Specific Heat
    0.9,                      !- Thermal Absorptance
    0.4,                      !- Solar Absorptance
    0.4;                      !- Visible Absorptance

MATERIAL,
    1IN Stucco,               !- Name
    Smooth,                   !- Roughness
    0.0253,                   !- Thickness
    0.691799999999999,        !- Conductivity
    1858,                     !- Density
    836.999999999999,         !- Specific Heat
    0.9,                      !- Thermal Absorptance
    0.92,                     !- Solar Absorptance
    0.92;                     !- Visible Absorptance

MATERIAL,
    8IN Concrete HW,          !- Name
    MediumRough,              !- Roughness
    0.2033,                   !- Thickness
    1.72959999999999,         !- Conductivity
    2242.99999999999,         !- Density
    836.999999999999,         !- Specific Heat
    0.9,                      !- Thermal Absorptance
    0.65,                     !- Solar Absorptance
    0.65;                     !- Visible Absorptance

MATERIAL,
    Wall Insulation [37],     !- Name
    MediumRough,              !- Roughness
    0.0680999999999999,       !- Thickness
    0.0432,                   !- Conductivity
    91,                       !- Density
    836.999999999999,         !- Specific Heat
    0.9,                      !- Thermal Absorptance
    0.5,                      !- Solar Absorptance
    0.5;                      !- Visible Absorptance

MATERIAL,
    1/2IN Gypsum,             !- Name
    Smooth,                   !- Roughness
    0.0127,                   !- Thickness
    0.16,                     !- Conductivity
    784.9,                    !- Density
    830.000000000001,         !- Specific Heat
    0.9,                      !- Thermal Absorptance
    0.4,                      !- Solar Absorptance
    0.4;                      !- Visible Absorptance

MATERIAL,
    G05 25mm wood,            !- Name
    MediumSmooth,             !- Roughness
    0.0254,                   !- Thickness
    0.15,                     !- Conductivity
    608,                      !- Density
    1630,                     !- Specific Heat
    0.9,                      !- Thermal Absorptance
    0.5,                      !- Solar Absorptance
    0.5;                      !- Visible Absorptance

MATERIAL,
    F08 Metal surface,        !- Name
    Smooth,                   !- Roughness
    0.0008,                   !- Thickness
    45.2800000000001,         !- Conductivity
    7823.99999999999,         !- Density
    500,                      !- Specific Heat
    0.9,                      !- Thermal Absorptance
    0.7,                      !- Solar Absorptance
    0.7;                      !- Visible Absorptance

MATERIAL,
    I01 25mm insulation board,    !- Name
    MediumRough,              !- Roughness
    0.0254,                   !- Thickness
    0.03,                     !- Conductivity
    43,                       !- Density
    1210,                     !- Specific Heat
    0.9,                      !- Thermal Absorptance
    0.6,                      !- Solar Absorptance
    0.6;                      !- Visible Absorptance

MATERIAL,
    F16 Acoustic tile,        !- Name
    MediumSmooth,             !- Roughness
    0.0191,                   !- Thickness
    0.06,                     !- Conductivity
    368,                      !- Density
    590.000000000002,         !- Specific Heat
    0.9,                      !- Thermal Absorptance
    0.3,                      !- Solar Absorptance
    0.3;                      !- Visible Absorptance

MATERIAL,
    M11 100mm lightweight concrete,    !- Name
    MediumRough,              !- Roughness
    0.1016,                   !- Thickness
    0.53,                     !- Conductivity
    1280,                     !- Density
    840.000000000002,         !- Specific Heat
    0.9,                      !- Thermal Absorptance
    0.5,                      !- Solar Absorptance
    0.5;                      !- Visible Absorptance

MATERIAL:NOMASS,
    CP02 CARPET PAD,          !- Name
    Smooth,                   !- Roughness
    0.1,                      !- Thermal Resistance
    0.9,                      !- Thermal Absorptance
    0.8,                      !- Solar Absorptance
    0.8;                      !- Visible Absorptance

MATERIAL:AIRGAP,
    F04 Wall air space resistance,    !- Name
    0.15;                     !- Thermal Resistance

MATERIAL:AIRGAP,
    F05 Ceiling air space resistance,    !- Name
    0.18;                     !- Thermal Resistance

WINDOWMATERIAL:GLAZING,
    Clear 3mm,                !- Name
    SpectralAverage,          !- Optical Data Type
    ,                         !- Window Glass Spectral Data Set Name
    3.000000e-03,             !- Thickness
    0.837,                    !- Solar Transmittance at Normal Incidence
    0.075,                    !- Front Side Solar Reflectance at Normal Incidence
    0,                        !- Back Side Solar Reflectance at Normal Incidence
    0.898,                    !- Visible Transmittance at Normal Incidence
    0.081,                    !- Front Side Visible Reflectance at Normal Incidence
    0,                        !- Back Side Visible Reflectance at Normal Incidence
    0,                        !- Infrared Transmittance at Normal Incidence
    0.84,                     !- Front Side Infrared Hemispherical Emissivity
    0.84,                     !- Back Side Infrared Hemispherical Emissivity
    0.9,                      !- Conductivity
    1,                        !- Dirt Correction Factor for Solar and Visible Transmittance
    No,                       !- Solar Diffusing
    72000000000,              !- Youngs modulus
    0.22;                     !- Poissons ratio

WINDOWMATERIAL:GLAZING,
    Theoretical Glass [207],    !- Name
    SpectralAverage,          !- Optical Data Type
    ,                         !- Window Glass Spectral Data Set Name
    3.000000e-03,             !- Thickness
    0.3311,                   !- Solar Transmittance at Normal Incidence
    0.6189,                   !- Front Side Solar Reflectance at Normal Incidence
    0,                        !- Back Side Solar Reflectance at Normal Incidence
    0.44,                     !- Visible Transmittance at Normal Incidence
    0.51,                     !- Front Side Visible Reflectance at Normal Incidence
    0,                        !- Back Side Visible Reflectance at Normal Incidence
    0,                        !- Infrared Transmittance at Normal Incidence
    0.9,                      !- Front Side Infrared Hemispherical Emissivity
    0.9,                      !- Back Side Infrared Hemispherical Emissivity
    0.0133,                   !- Conductivity
    1,                        !- Dirt Correction Factor for Solar and Visible Transmittance
    No,                       !- Solar Diffusing
    72000000000,              !- Youngs modulus
    0.22;                     !- Poissons ratio

CONSTRUCTION,
    ExtSlabCarpet 4in ClimateZone 1-8,    !- Name
    MAT-CC05 4 HW CONCRETE,    !- Outside Layer
    CP02 CARPET PAD;          !- Layer 2

CONSTRUCTION,
    ASHRAE 189.1-2009 ExtRoof IEAD ClimateZone 2-5,    !- Name
    Roof Membrane,            !- Outside Layer
    Roof Insulation [21],     !- Layer 2
    Metal Decking;            !- Layer 3

CONSTRUCTION,
    Interior Wall,            !- Name
    G01a 19mm gypsum board,    !- Outside Layer
    F04 Wall air space resistance,    !- Layer 2
    G01a 19mm gypsum board;    !- Layer 3

CONSTRUCTION,
    ASHRAE 189.1-2009 ExtWall Mass ClimateZone 4,    !- Name
    1IN Stucco,               !- Outside Layer
    8IN Concrete HW,          !- Layer 2
    Wall Insulation [37],     !- Layer 3
    1/2IN Gypsum;             !- Layer 4

CONSTRUCTION,
    Interior Window,          !- Name
    Clear 3mm;                !- Outside Layer

CONSTRUCTION,
    ASHRAE 189.1-2009 ExtWindow ClimateZone 4-5,    !- Name
    Theoretical Glass [207];    !- Outside Layer

CONSTRUCTION,
    Interior Door,            !- Name
    G05 25mm wood;            !- Outside Layer

CONSTRUCTION,
    Exterior Door,            !- Name
    F08 Metal surface,        !- Outside Layer
    I01 25mm insulation board;    !- Layer 2

CONSTRUCTION,
    Interior Ceiling,         !- Name
    M11 100mm lightweight concrete,    !- Outside Layer
    F05 Ceiling air space resistance,    !- Layer 2
    F16 Acoustic tile;        !- Layer 3

CONSTRUCTION,
    Interior Floor,           !- Name
    F16 Acoustic tile,        !- Outside Layer
    F05 Ceiling air space resistance,    !- Layer 2
    M11 100mm lightweight concrete;    !- Layer 3

GlobalGeometryRules,
    UpperLeftCorner,          !- Starting Vertex Position
    Counterclockwise,         !- Vertex Entry Direction
    Relative,                 !- Coordinate System
    Relative,                 !- Daylighting Reference Point Coordinate System
    Relative;                 !- Rectangular Surface Coordinate System

SPACE,
    Room 83ac1492-6613-452a-8f34-0e446c184028,    !- Name
    Thermal Zone 1,           !- Zone Name
    autocalculate,            !- Ceiling Height
    autocalculate,            !- Volume
    autocalculate,            !- Floor Area
    189.1-2009 - Office - ClosedOffice - CZ4-8;    !- Space Type

SPACE,
    Room 4aa42393-f1bb-429c-a7d4-f314be09e4e3,    !- Name
    Thermal Zone 1,           !- Zone Name
    autocalculate,            !- Ceiling Height
    autocalculate,            !- Volume
    autocalculate,            !- Floor Area
    189.1-2009 - Office - ClosedOffice - CZ4-8;    !- Space Type

SPACE,
    Room b1257b86-bb24-4bf3-a154-bae98e50c1ac,    !- Name
    Thermal Zone 1,           !- Zone Name
    autocalculate,            !- Ceiling Height
    autocalculate,            !- Volume
    autocalculate,            !- Floor Area
    189.1-2009 - Office - ClosedOffice - CZ4-8;    !- Space Type

SPACE,
    Room 3765bc3c-a5e5-4776-8bc2-affcf7ccded3,    !- Name
    Thermal Zone 1,           !- Zone Name
    autocalculate,            !- Ceiling Height
    autocalculate,            !- Volume
    autocalculate,            !- Floor Area
    189.1-2009 - Office - ClosedOffice - CZ4-8;    !- Space Type

SPACE,
    Room 5cf59dd0-ce2d-4dcc-8197-ee754f9d5446,    !- Name
    Thermal Zone 1,           !- Zone Name
    autocalculate,            !- Ceiling Height
    autocalculate,            !- Volume
    autocalculate,            !- Floor Area
    189.1-2009 - Office - ClosedOffice - CZ4-8;    !- Space Type

SPACE,
    Room ae8e6b1d-7fe6-4e66-8810-b6a45c9d27ff,    !- Name
    Thermal Zone 1,           !- Zone Name
    autocalculate,            !- Ceiling Height
    autocalculate,            !- Volume
    autocalculate,            !- Floor Area
    189.1-2009 - Office - ClosedOffice - CZ4-8;    !- Space Type

SPACE,
    Room 6b788e11-8617-4247-9d7d-1d7645c4a9c2,    !- Name
    Thermal Zone 1,           !- Zone Name
    autocalculate,            !- Ceiling Height
    autocalculate,            !- Volume
    autocalculate,            !- Floor Area
    189.1-2009 - Office - ClosedOffice - CZ4-8;    !- Space Type

SPACE,
    Room b768c439-b209-45a9-9149-9b29313e9857,    !- Name
    Thermal Zone 1,           !- Zone Name
    autocalculate,            !- Ceiling Height
    autocalculate,            !- Volume
    autocalculate,            !- Floor Area
    189.1-2009 - Office - ClosedOffice - CZ4-8;    !- Space Type

SPACE,
    Room 38ebf377-75c3-4a11-adc2-b99056887e26,    !- Name
    Thermal Zone 1,           !- Zone Name
    autocalculate,            !- Ceiling Height
    autocalculate,            !- Volume
    autocalculate,            !- Floor Area
    189.1-2009 - Office - ClosedOffice - CZ4-8;    !- Space Type

SPACE,
    Room b7f5e32f-3860-4457-b0df-f3644c9e83f2,    !- Name
    Thermal Zone 1,           !- Zone Name
    autocalculate,            !- Ceiling Height
    autocalculate,            !- Volume
    autocalculate,            !- Floor Area
    189.1-2009 - Office - ClosedOffice - CZ4-8;    !- Space Type

SPACE,
    Room 7a2b6222-2609-464f-a324-984f913e0302,    !- Name
    Thermal Zone 1,           !- Zone Name
    autocalculate,            !- Ceiling Height
    autocalculate,            !- Volume
    autocalculate,            !- Floor Area
    189.1-2009 - Office - ClosedOffice - CZ4-8;    !- Space Type

SPACE,
    Room c9a0883e-c9ee-421a-9d8d-8a9c1550cb96,    !- Name
    Thermal Zone 1,           !- Zone Name
    autocalculate,            !- Ceiling Height
    autocalculate,            !- Volume
    autocalculate,            !- Floor Area
    189.1-2009 - Office - ClosedOffice - CZ4-8;    !- Space Type

SPACE,
    Room 4498e331-f2ad-4e62-baae-03906407a62d,    !- Name
    Thermal Zone 1,           !- Zone Name
    autocalculate,            !- Ceiling Height
    autocalculate,            !- Volume
    autocalculate,            !- Floor Area
    189.1-2009 - Office - ClosedOffice - CZ4-8;    !- Space Type

SPACE,
    Room 759d8665-03cb-4309-98eb-fe01ed616f31,    !- Name
    Thermal Zone 1,           !- Zone Name
    autocalculate,            !- Ceiling Height
    autocalculate,            !- Volume
    autocalculate,            !- Floor Area
    189.1-2009 - Office - ClosedOffice - CZ4-8;    !- Space Type

SPACE,
    Room 5dc97a4f-f6f2-48e3-a999-248d86e2585d,    !- Name
    Thermal Zone 1,           !- Zone Name
    autocalculate,            !- Ceiling Height
    autocalculate,            !- Volume
    autocalculate,            !- Floor Area
    189.1-2009 - Office - ClosedOffice - CZ4-8;    !- Space Type

SPACE,
    Room e040c5c7-0e85-4e83-aeb2-4a04d0d9e0d8,    !- Name
    Thermal Zone 1,           !- Zone Name
    autocalculate,            !- Ceiling Height
    autocalculate,            !- Volume
    autocalculate,            !- Floor Area
    189.1-2009 - Office - ClosedOffice - CZ4-8;    !- Space Type

SPACE,
    Room 3b27d0e3-f818-424f-b86b-1206c6f9136d,    !- Name
    Thermal Zone 1,           !- Zone Name
    autocalculate,            !- Ceiling Height
    autocalculate,            !- Volume
    autocalculate,            !- Floor Area
    189.1-2009 - Office - ClosedOffice - CZ4-8;    !- Space Type

SPACE,
    Room aca1267a-3bc2-497e-9308-22ea45d4abbd,    !- Name
    Thermal Zone 1,           !- Zone Name
    autocalculate,            !- Ceiling Height
    autocalculate,            !- Volume
    autocalculate,            !- Floor Area
    189.1-2009 - Office - ClosedOffice - CZ4-8;    !- Space Type

SPACE,
    Room 33d41b1c-0d8b-41d9-b090-4b1da4eee6e1,    !- Name
    Thermal Zone 1,           !- Zone Name
    autocalculate,            !- Ceiling Height
    autocalculate,            !- Volume
    autocalculate,            !- Floor Area
    189.1-2009 - Office - ClosedOffice - CZ4-8;    !- Space Type

SPACE,
    Room 2a3bff66-e72b-4954-b822-c757ad25ac34,    !- Name
    Thermal Zone 1,           !- Zone Name
    autocalculate,            !- Ceiling Height
    autocalculate,            !- Volume
    autocalculate,            !- Floor Area
    189.1-2009 - Office - ClosedOffice - CZ4-8;    !- Space Type

Zone,
    Thermal Zone 1,           !- Name
    ,                         !- Direction of Relative North
    0,                        !- X Origin
    0,                        !- Y Origin
    0,                        !- Z Origin
    ,                         !- Type
    1,                        !- Multiplier
    ,                         !- Ceiling Height
    ,                         !- Volume
    ,                         !- Floor Area
    ,                         !- Zone Inside Convection Algorithm
    ,                         !- Zone Outside Convection Algorithm
    Yes;                      !- Part of Total Floor Area

BUILDINGSURFACE:DETAILED,
    Face 0,                   !- Name
    Wall,                     !- Surface Type
    ASHRAE 189.1-2009 ExtWall Mass ClimateZone 4,    !- Construction Name
    Thermal Zone 1,           !- Zone Name
    Room 83ac1492-6613-452a-8f34-0e446c184028,    !- Space Name
    Outdoors,                 !- Outside Boundary Condition
    ,                         !- Outside Boundary Condition Object
    SunExposed,               !- Sun Exposure
    WindExposed,              !- Wind Exposure
    autocalculate,            !- View Factor to Ground
    autocalculate,            !- Number of Vertices
    0,                        !- Vertex 1 Xcoordinate
    0,                        !- Vertex 1 Ycoordinate
    0,                        !- Vertex 1 Zcoordinate
    0,                        !- Vertex 2 Xcoordinate
    0,                        !- Vertex 2 Ycoordinate
    3,                        !- Vertex 2 Zcoordinate
    0,                        !- Vertex 3 Xcoordinate
    5,                        !- Vertex 3 Ycoordinate
    3,                        !- Vertex 3 Zcoordinate
    0,                        !- Vertex 4 Xcoordinate
    5,                        !- Vertex 4 Ycoordinate
    0;                        !- Vertex 4 Zcoordinate

BUILDINGSURFACE:DETAILED,
    Face 1,                   !- Name
    Wall,                     !- Surface Type
    ASHRAE 189.1-2009 ExtWall Mass ClimateZone 4,    !- Construction Name
    Thermal Zone 1,           !- Zone Name
    Room 83ac1492-6613-452a-8f34-0e446c184028,    !- Space Name
    Outdoors,                 !- Outside Boundary Condition
    ,                         !- Outside Boundary Condition Object
    SunExposed,               !- Sun Exposure
    WindExposed,              !- Wind Exposure
    autocalculate,            !- View Factor to Ground
    autocalculate,            !- Number of Vertices
    0,                        !- Vertex 1 Xcoordinate
    0,                        !- Vertex 1 Ycoordinate
    0,                        !- Vertex 1 Zcoordinate
    0,                        !- Vertex 2 Xcoordinate
    0,                        !- Vertex 2 Ycoordinate
    3,                        !- Vertex 2 Zcoordinate
    4,                        !- Vertex 3 Xcoordinate
    0,                        !- Vertex 3 Ycoordinate
    3,                        !- Vertex 3 Zcoordinate
    4,                        !- Vertex 4 Xcoordinate
    0,                        !- Vertex 4 Ycoordinate
    0;                        !- Vertex 4 Zcoordinate

BUILDINGSURFACE:DETAILED,
    Face 2,                   !- Name
    Floor,                    !- Surface Type
    ExtSlabCarpet 4in ClimateZone 1-8,    !- Construction Name
    Thermal Zone 1,           !- Zone Name
    Room 83ac1492-6613-452a-8f34-0e446c184028,    !- Space Name
    Ground,                   !- Outside Boundary Condition
    ,                         !- Outside Boundary Condition Object
    NoSun,                    !- Sun Exposure
    NoWind,                   !- Wind Exposure
    autocalculate,            !- View Factor to Ground
    autocalculate,            !- Number of Vertices
    0,                        !- Vertex 1 Xcoordinate
    0,                        !- Vertex 1 Ycoordinate
    0,                        !- Vertex 1 Zcoordinate
    0,                        !- Vertex 2 Xcoordinate
    5,                        !- Vertex 2 Ycoordinate
    0,                        !- Vertex 2 Zcoordinate
    4,                        !- Vertex 3 Xcoordinate
    5,                        !- Vertex 3 Ycoordinate
    0,                        !- Vertex 3 Zcoordinate
    4,                        !- Vertex 4 Xcoordinate
    0,                        !- Vertex 4 Ycoordinate
    0;                        !- Vertex 4 Zcoordinate

BUILDINGSURFACE:DETAILED,
    Face 3,                   !- Name
    Roof,                     !- Surface Type
    ASHRAE 189.1-2009 ExtRoof IEAD ClimateZone 2-5,    !- Construction Name
    Thermal Zone 1,           !- Zone Name
    Room 83ac1492-6613-452a-8f34-0e446c184028,    !- Space Name
    Outdoors,                 !- Outside Boundary Condition
    ,                         !- Outside Boundary Condition Object
    SunExposed,               !- Sun Exposure
    WindExposed,              !- Wind Exposure
    autocalculate,            !- View Factor to Ground
    autocalculate,            !- Number of Vertices
    0,                        !- Vertex 1 Xcoordinate
    0,                        !- Vertex 1 Ycoordinate
    3,                        !- Vertex 1 Zcoordinate
    0,                        !- Vertex 2 Xcoordinate
    5,                        !- Vertex 2 Ycoordinate
    3,                        !- Vertex 2 Zcoordinate
    4,                        !- Vertex 3 Xcoordinate
    5,                        !- Vertex 3 Ycoordinate
    3,                        !- Vertex 3 Zcoordinate
    4,                        !- Vertex 4 Xcoordinate
    0,                        !- Vertex 4 Ycoordinate
    3;                        !- Vertex 4 Zcoordinate

BUILDINGSURFACE:DETAILED,
    Face 4,                   !- Name
    Wall,                     !- Surface Type
    ASHRAE 189.1-2009 ExtWall Mass ClimateZone 4,    !- Construction Name
    Thermal Zone 1,           !- Zone Name
    Room 83ac1492-6613-452a-8f34-0e446c184028,    !- Space Name
    Outdoors,                 !- Outside Boundary Condition
    ,                         !- Outside Boundary Condition Object
    SunExposed,               !- Sun Exposure
    WindExposed,              !- Wind Exposure
    autocalculate,            !- View Factor to Ground
    autocalculate,            !- Number of Vertices
    0,                        !- Vertex 1 Xcoordinate
    5,                        !- Vertex 1 Ycoordinate
    0,                        !- Vertex 1 Zcoordinate
    0,                        !- Vertex 2 Xcoordinate
    5,                        !- Vertex 2 Ycoordinate
    3,                        !- Vertex 2 Zcoordinate
    4,                        !- Vertex 3 Xcoordinate
    5,                        !- Vertex 3 Ycoordinate
    3,                        !- Vertex 3 Zcoordinate
    4,                        !- Vertex 4 Xcoordinate
    5,                        !- Vertex 4 Ycoordinate
    0;                        !- Vertex 4 Zcoordinate

BUILDINGSURFACE:DETAILED,
    Face 5,                   !- Name
    Wall,                     !- Surface Type
    Interior Wall,            !- Construction Name
    Thermal Zone 1,           !- Zone Name
    Room 83ac1492-6613-452a-8f34-0e446c184028,    !- Space Name
    Surface,                  !- Outside Boundary Condition
    Face 5,                   !- Outside Boundary Condition Object
    NoSun,                    !- Sun Exposure
    NoWind,                   !- Wind Exposure
    autocalculate,            !- View Factor to Ground
    autocalculate,            !- Number of Vertices
    4,                        !- Vertex 1 Xcoordinate
    0,                        !- Vertex 1 Ycoordinate
    0,                        !- Vertex 1 Zcoordinate
    4,                        !- Vertex 2 Xcoordinate
    0,                        !- Vertex 2 Ycoordinate
    3,                        !- Vertex 2 Zcoordinate
    4,                        !- Vertex 3 Xcoordinate
    5,                        !- Vertex 3 Ycoordinate
    3,                        !- Vertex 3 Zcoordinate
    4,                        !- Vertex 4 Xcoordinate
    5,                        !- Vertex 4 Ycoordinate
    0;                        !- Vertex 4 Zcoordinate

BUILDINGSURFACE:DETAILED,
    Face 6,                   !- Name
    Wall,                     !- Surface Type
    ASHRAE 189.1-2009 ExtWall Mass ClimateZone 4,    !- Construction Name
    Thermal Zone 1,           !- Zone Name
    Room 4aa42393-f1bb-429c-a7d4-f314be09e4e3,    !- Space Name
    Outdoors,                 !- Outside Boundary Condition
    ,                         !- Outside Boundary Condition Object
    SunExposed,               !- Sun Exposure
    WindExposed,              !- Wind Exposure
    autocalculate,            !- View Factor to Ground
    autocalculate,            !- Number of Vertices
    4,                        !- Vertex 1 Xcoordinate
    0,                        !- Vertex 1 Ycoordinate
    0,                        !- Vertex 1 Zcoordinate
    4,                        !- Vertex 2 Xcoordinate
    0,                        !- Vertex 2 Ycoordinate
    3,                        !- Vertex 2 Zcoordinate
    4,                        !- Vertex 3 Xcoordinate
    5,                        !- Vertex 3 Ycoordinate
    3,                        !- Vertex 3 Zcoordinate
    4,                        !- Vertex 4 Xcoordinate
    5,                        !- Vertex 4 Ycoordinate
    0;                        !- Vertex 4 Zcoordinate

BUILDINGSURFACE:DETAILED,
    Face 7,                   !- Name
    Wall,                     !- Surface Type
    ASHRAE 189.1-2009 ExtWall Mass ClimateZone 4,    !- Construction Name
    Thermal Zone 1,           !- Zone Name
    Room 4aa42393-f1bb-429c-a7d4-f314be09e4e3,    !- Space Name
    Outdoors,                 !- Outside Boundary Condition
    ,                         !- Outside Boundary Condition Object
    SunExposed,               !- Sun Exposure
    WindExposed,              !- Wind Exposure
    autocalculate,            !- View Factor to Ground
    autocalculate,            !- Number of Vertices
    4,                        !- Vertex 1 Xcoordinate
    0,                        !- Vertex 1 Ycoordinate
    0,                        !- Vertex 1 Zcoordinate
    4,                        !- Vertex 2 Xcoordinate
    0,                        !- Vertex 2 Ycoordinate
    3,                        !- Vertex 2 Zcoordinate
    8,                        !- Vertex 3 Xcoordinate
    0,                        !- Vertex 3 Ycoordinate
    3,                        !- Vertex 3 Zcoordinate
    8,                        !- Vertex 4 Xcoordinate
    0,                        !- Vertex 4 Ycoordinate
    0;                        !- Vertex 4 Zcoordinate

BUILDINGSURFACE:DETAILED,
    Face 8,                   !- Name
    Floor,                    !- Surface Type
    ExtSlabCarpet 4in ClimateZone 1-8,    !- Construction Name
    Thermal Zone 1,           !- Zone Name
    Room 4aa42393-f1bb-429c-a7d4-f314be09e4e3,    !- Space Name
    Ground,                   !- Outside Boundary Condition
    ,                         !- Outside Boundary Condition Object
    NoSun,                    !- Sun Exposure
    NoWind,                   !- Wind Exposure
    autocalculate,            !- View Factor to Ground
    autocalculate,            !- Number of Vertices
    4,                        !- Vertex 1 Xcoordinate
    0,                        !- Vertex 1 Ycoordinate
    0,                        !- Vertex 1 Zcoordinate
    4,                        !- Vertex 2 Xcoordinate
    5,                        !- Vertex 2 Ycoordinate
    0,                        !- Vertex 2 Zcoordinate
    8,                        !- Vertex 3 Xcoordinate
    5,                        !- Vertex 3 Ycoordinate
    0,                        !- Vertex 3 Zcoordinate
    8,                        !- Vertex 4 Xcoordinate
    0,                        !- Vertex 4 Ycoordinate
    0;                        !- Vertex 4 Zcoordinate

BUILDINGSURFACE:DETAILED,
    Face 9,                   !- Name
    Roof,                     !- Surface Type
    ASHRAE 189.1-2009 ExtRoof IEAD ClimateZone 2-5,    !- Construction Name
    Thermal Zone 1,           !- Zone Name
    Room 4aa42393-f1bb-429c-a7d4-f314be09e4e3,    !- Space Name
    Outdoors,                 !- Outside Boundary Condition
    ,                         !- Outside Boundary Condition Object
    SunExposed,               !- Sun Exposure
    WindExposed,              !- Wind Exposure
    autocalculate,            !- View Factor to Ground
    autocalculate,            !- Number of Vertices
    4,                        !- Vertex 1 Xcoordinate
    0,                        !- Vertex 1 Ycoordinate
    3,                        !- Vertex 1 Zcoordinate
    4,                        !- Vertex 2 Xcoordinate
    5,                        !- Vertex 2 Ycoordinate
    3,                        !- Vertex 2 Zcoordinate
    8,                        !- Vertex 3 Xcoordinate
    5,                        !- Vertex 3 Ycoordinate
    3,                        !- Vertex 3 Zcoordinate
    8,                        !- Vertex 4 Xcoordinate
    0,                        !- Vertex 4 Ycoordinate
    3;                        !- Vertex 4 Zcoordinate

BUILDINGSURFACE:DETAILED,
    Face 10,                  !- Name
    Wall,                     !- Surface Type
    ASHRAE 189.1-2009 ExtWall Mass ClimateZone 4,    !- Construction Name
    Thermal Zone 1,           !- Zone Name
    Room 4aa42393-f1bb-429c-a7d4-f314be09e4e3,    !- Space Name
    Outdoors,                 !- Outside Boundary Condition
    ,                         !- Outside Boundary Condition Object
    SunExposed,               !- Sun Exposure
    WindExposed,              !- Wind Exposure
    autocalculate,            !- View Factor to Ground
    autocalculate,            !- Number of Vertices
    4,                        !- Vertex 1 Xcoordinate
    5,                        !- Vertex 1 Ycoordinate
    0,                        !- Vertex 1 Zcoordinate
    4,                        !- Vertex 2 Xcoordinate
    5,                        !- Vertex 2 Ycoordinate
    3,                        !- Vertex 2 Zcoordinate
    8,                        !- Vertex 3 Xcoordinate
    5,                        !- Vertex 3 Ycoordinate
    3,                        !- Vertex 3 Zcoordinate
    8,                        !- Vertex 4 Xcoordinate
    5,                        !- Vertex 4 Ycoordinate
    0;                        !- Vertex 4 Zcoordinate

BUILDINGSURFACE:DETAILED,
    Face 11,                  !- Name
    Wall,                     !- Surface Type
    ASHRAE 189.1-2009 ExtWall Mass ClimateZone 4,    !- Construction Name
    Thermal Zone 1,           !- Zone Name
    Room 4aa42393-f1bb-429c-a7d4-f314be09e4e3,    !- Space Name
    Outdoors,                 !- Outside Boundary Condition
    ,                         !- Outside Boundary Condition Object
    SunExposed,               !- Sun Exposure
    WindExposed,              !- Wind Exposure
    autocalculate,            !- View Factor to Ground
    autocalculate,            !- Number of Vertices
    8,                        !- Vertex 1 Xcoordinate
    0,                        !- Vertex 1 Ycoordinate
    0,                        !- Vertex 1 Zcoordinate
    8,                        !- Vertex 2 Xcoordinate
    0,                        !- Vertex 2 Ycoordinate
    3,                        !- Vertex 2 Zcoordinate
    8,                        !- Vertex 3 Xcoordinate
    5,                        !- Vertex 3 Ycoordinate
    3,                        !- Vertex 3 Zcoordinate
    8,                        !- Vertex 4 Xcoordinate
    5,                        !- Vertex 4 Ycoordinate
    0;                        !- Vertex 4 Zcoordinate

BUILDINGSURFACE:DETAILED,
    Face 12,                  !- Name
    Wall,                     !- Surface Type
    ASHRAE 189.1-2009 ExtWall Mass ClimateZone 4,    !- Construction Name
    Thermal Zone 1,           !- Zone Name
    Room b1257b86-bb24-4bf3-a154-bae98e50c1ac,    !- Space Name
    Outdoors,                 !- Outside Boundary Condition
    ,                         !- Outside Boundary Condition Object
    SunExposed,               !- Sun Exposure
    WindExposed,              !- Wind Exposure
    autocalculate,            !- View Factor to Ground
    autocalculate,            !- Number of Vertices
    0,                        !- Vertex 1 Xcoordinate
    5,                        !- Vertex 1 Ycoordinate
    0,                        !- Vertex 1 Zcoordinate
    0,                        !- Vertex 2 Xcoordinate
    5,                        !- Vertex 2 Ycoordinate
    3,                        !- Vertex 2 Zcoordinate
    0,                        !- Vertex 3 Xcoordinate
    10,                       !- Vertex 3 Ycoordinate
    3,                        !- Vertex 3 Zcoordinate
    0,                        !- Vertex 4 Xcoordinate
    10,                       !- Vertex 4 Ycoordinate
    0;                        !- Vertex 4 Zcoordinate

BUILDINGSURFACE:DETAILED,
    Face 14,                  !- Name
    Wall,                     !- Surface Type
    ASHRAE 189.1-2009 ExtWall Mass ClimateZone 4,    !- Construction Name
    Thermal Zone 1,           !- Zone Name
    Room b1257b86-bb24-4bf3-a154-bae98e50c1ac,    !- Space Name
    Outdoors,                 !- Outside Boundary Condition
    ,                         !- Outside Boundary Condition Object
    SunExposed,               !- Sun Exposure
    WindExposed,              !- Wind Exposure
    autocalculate,            !- View Factor to Ground
    autocalculate,            !- Number of Vertices
    0,                        !- Vertex 1 Xcoordinate
    5,                        !- Vertex 1 Ycoordinate
    0,                        !- Vertex 1 Zcoordinate
    0,                        !- Vertex 2 Xcoordinate
    5,                        !- Vertex 2 Ycoordinate
    3,                        !- Vertex 2 Zcoordinate
    2.667,                    !- Vertex 3 Xcoordinate
    5,                        !- Vertex 3 Ycoordinate
    3,                        !- Vertex 3 Zcoordinate
    2.667,                    !- Vertex 4 Xcoordinate
    5,                        !- Vertex 4 Ycoordinate
    0;                        !- Vertex 4 Zcoordinate

BUILDINGSURFACE:DETAILED,
    Face 15,                  !- Name
    Floor,                    !- Surface Type
    ExtSlabCarpet 4in ClimateZone 1-8,    !- Construction Name
    Thermal Zone 1,           !- Zone Name
    Room b1257b86-bb24-4bf3-a154-bae98e50c1ac,    !- Space Name
    Ground,                   !- Outside Boundary Condition
    ,                         !- Outside Boundary Condition Object
    NoSun,                    !- Sun Exposure
    NoWind,                   !- Wind Exposure
    autocalculate,            !- View Factor to Ground
    autocalculate,            !- Number of Vertices
    0,                        !- Vertex 1 Xcoordinate
    5,                        !- Vertex 1 Ycoordinate
    0,                        !- Vertex 1 Zcoordinate
    0,                        !- Vertex 2 Xcoordinate
    10,                       !- Vertex 2 Ycoordinate
    0,                        !- Vertex 2 Zcoordinate
    2.667,                    !- Vertex 3 Xcoordinate
    10,                       !- Vertex 3 Ycoordinate
    0,                        !- Vertex 3 Zcoordinate
    2.667,                    !- Vertex 4 Xcoordinate
    5,                        !- Vertex 4 Ycoordinate
    0;                        !- Vertex 4 Zcoordinate

BUILDINGSURFACE:DETAILED,
    Face 16,                  !- Name
    Roof,                     !- Surface Type
    ASHRAE 189.1-2009 ExtRoof IEAD ClimateZone 2-5,    !- Construction Name
    Thermal Zone 1,           !- Zone Name
    Room b1257b86-bb24-4bf3-a154-bae98e50c1ac,    !- Space Name
    Outdoors,                 !- Outside Boundary Condition
    ,                         !- Outside Boundary Condition Object
    SunExposed,               !- Sun Exposure
    WindExposed,              !- Wind Exposure
    autocalculate,            !- View Factor to Ground
    autocalculate,            !- Number of Vertices
    0,                        !- Vertex 1 Xcoordinate
    5,                        !- Vertex 1 Ycoordinate
    3,                        !- Vertex 1 Zcoordinate
    0,                        !- Vertex 2 Xcoordinate
    10,                       !- Vertex 2 Ycoordinate
    3,                        !- Vertex 2 Zcoordinate
    2.667,                    !- Vertex 3 Xcoordinate
    10,                       !- Vertex 3 Ycoordinate
    3,                        !- Vertex 3 Zcoordinate
    2.667,                    !- Vertex 4 Xcoordinate
    5,                        !- Vertex 4 Ycoordinate
    3;                        !- Vertex 4 Zcoordinate

BUILDINGSURFACE:DETAILED,
    Face 17,                  !- Name
    Wall,                     !- Surface Type
    ASHRAE 189.1-2009 ExtWall Mass ClimateZone 4,    !- Construction Name
    Thermal Zone 1,           !- Zone Name
    Room b1257b86-bb24-4bf3-a154-bae98e50c1ac,    !- Space Name
    Outdoors,                 !- Outside Boundary Condition
    ,                         !- Outside Boundary Condition Object
    SunExposed,               !- Sun Exposure
    WindExposed,              !- Wind Exposure
    autocalculate,            !- View Factor to Ground
    autocalculate,            !- Number of Vertices
    0,                        !- Vertex 1 Xcoordinate
    10,                       !- Vertex 1 Ycoordinate
    0,                        !- Vertex 1 Zcoordinate
    0,                        !- Vertex 2 Xcoordinate
    10,                       !- Vertex 2 Ycoordinate
    3,                        !- Vertex 2 Zcoordinate
    2.667,                    !- Vertex 3 Xcoordinate
    10,                       !- Vertex 3 Ycoordinate
    3,                        !- Vertex 3 Zcoordinate
    2.667,                    !- Vertex 4 Xcoordinate
    10,                       !- Vertex 4 Ycoordinate
    0;                        !- Vertex 4 Zcoordinate

BUILDINGSURFACE:DETAILED,
    Face 18,                  !- Name
    Wall,                     !- Surface Type
    Interior Wall,            !- Construction Name
    Thermal Zone 1,           !- Zone Name
    Room b1257b86-bb24-4bf3-a154-bae98e50c1ac,    !- Space Name
    Surface,                  !- Outside Boundary Condition
    Face 18,                  !- Outside Boundary Condition Object
    NoSun,                    !- Sun Exposure
    NoWind,                   !- Wind Exposure
    autocalculate,            !- View Factor to Ground
    autocalculate,            !- Number of Vertices
[...]
    Air Loop HVAC Outdoor Air System 1 Equipment List;    !- Outdoor Air Equipment List Name

OutdoorAir:Mixer,
    Air Loop HVAC Outdoor Air System 1 Outdoor Air Mixer,    !- Name
    Node 9,                   !- Mixed Air Node Name
    Node 7,                   !- Outdoor Air Stream Node Name
    Node 8,                   !- Relief Air Stream Node Name
    Node 2;                   !- Return Air Stream Node Name

AirLoopHVAC:ZoneSplitter,
    Air Loop HVAC Zone Splitter 1,    !- Name
    Node 4,                   !- Inlet Node Name
    Node 12;                  !- Outlet 1 Node Name

AirLoopHVAC:SupplyPath,
    Packaged Rooftop VAV with PFP Boxes and Reheat Node 4 Supply Path,    !- Name
    Node 4,                   !- Supply Air Path Inlet Node Name
    AirLoopHVAC:ZoneSplitter,    !- Component 1 Object Type
    Air Loop HVAC Zone Splitter 1;    !- Component 1 Name

AirLoopHVAC:ZoneMixer,
    Air Loop HVAC Zone Mixer 1,    !- Name
    Node 5,                   !- Outlet Node Name
    Node 11;                  !- Inlet 1 Node Name

AirLoopHVAC:ReturnPath,
    Packaged Rooftop VAV with PFP Boxes and Reheat Return Path,    !- Name
    Node 5,                   !- Return Air Path Outlet Node Name
    AirLoopHVAC:ZoneMixer,    !- Component 1 Object Type
    Air Loop HVAC Zone Mixer 1;    !- Component 1 Name

Branch,
    Packaged Rooftop VAV with PFP Boxes and Reheat Main Branch,    !- Name
    ,                         !- Pressure Drop Curve Name
    AirLoopHVAC:OutdoorAirSystem,    !- Component 1 Object Type
    Air Loop HVAC Outdoor Air System 1,    !- Component 1 Name
    Node 2,                   !- Component 1 Inlet Node Name
    Node 9,                   !- Component 1 Outlet Node Name
    CoilSystem:Cooling:DX,    !- Component 2 Object Type
    Coil Cooling DX Two Speed 1 CoilSystem,    !- Component 2 Name
    Node 9,                   !- Component 2 Inlet Node Name
    Node 10,                  !- Component 2 Outlet Node Name
    Fan:VariableVolume,       !- Component 3 Object Type
    Fan Variable Volume 1,    !- Component 3 Name
    Node 10,                  !- Component 3 Inlet Node Name
    Node 3;                   !- Component 3 Outlet Node Name

BranchList,
    Packaged Rooftop VAV with PFP Boxes and Reheat Supply Branches,    !- Name
    Packaged Rooftop VAV with PFP Boxes and Reheat Main Branch;    !- Branch 1 Name

NodeList,
    Thermal Zone 1 Inlet Node List,    !- Name
    Node 6;                   !- Node 1 Name

NodeList,
    Thermal Zone 1 Return Node List,    !- Name
    Node 11;                  !- Node 1 Name

NodeList,
    Packaged Rooftop VAV with PFP Boxes and Reheat Supply Outlet Nodes,    !- Name
    Node 3;                   !- Node 1 Name

NodeList,
    Packaged Rooftop VAV with PFP Boxes and Reheat Demand Inlet Nodes,    !- Name
    Node 4;                   !- Node 1 Name

OutdoorAir:Node,
    Model Outdoor Air Node;    !- Name

OutdoorAir:NodeList,
    Node 7;                   !- Node or NodeList Name 1

AvailabilityManager:Scheduled,
    Packaged Rooftop VAV with PFP Boxes and Reheat Availability Manager,    !- Name
    Always On Discrete;       !- Schedule Name

AvailabilityManager:Scheduled,
    Air Loop HVAC Outdoor Air System 1 Availability Manager,    !- Name
    Always On Discrete;       !- Schedule Name

AvailabilityManagerAssignmentList,
    Packaged Rooftop VAV with PFP Boxes and ReheatAvailability Manager List,    !- Name
    AvailabilityManager:Scheduled,    !- Availability Manager 1 Object Type
    Packaged Rooftop VAV with PFP Boxes and Reheat Availability Manager;    !- Availability Manager 1 Name

AvailabilityManagerAssignmentList,
    Air Loop HVAC Outdoor Air System 1 Availability Manager List,    !- Name
    AvailabilityManager:Scheduled,    !- Availability Manager 1 Object Type
    Air Loop HVAC Outdoor Air System 1 Availability Manager;    !- Availability Manager 1 Name

SetpointManager:Scheduled,
    Setpoint Manager Scheduled 1,    !- Name
    Temperature,              !- Control Variable
    Deck_Temperature,         !- Schedule Name
    Node 3;                   !- Setpoint Node or NodeList Name

SetpointManager:MixedAir,
    Node 9 OS Default SPM,    !- Name
    Temperature,              !- Control Variable
    Node 3,                   !- Reference Setpoint Node Name
    Node 10,                  !- Fan Inlet Node Name
    Node 3,                   !- Fan Outlet Node Name
    Node 9;                   !- Setpoint Node or NodeList Name

SetpointManager:MixedAir,
    Node 10 OS Default SPM,    !- Name
    Temperature,              !- Control Variable
    Node 3,                   !- Reference Setpoint Node Name
    Node 10,                  !- Fan Inlet Node Name
    Node 3,                   !- Fan Outlet Node Name
    Node 10;                  !- Setpoint Node or NodeList Name

Curve:Quadratic,
    Curve Quadratic 1,        !- Name
    0.77136,                  !- Coefficient1 Constant
    0.34053,                  !- Coefficient2 x
    -0.11088,                 !- Coefficient3 x2
    0.75918,                  !- Minimum Value of x
    1.13877;                  !- Maximum Value of x

Curve:Quadratic,
    Curve Quadratic 2,        !- Name
    1.2055,                   !- Coefficient1 Constant
    -0.32953,                 !- Coefficient2 x
    0.12308,                  !- Coefficient3 x2
    0.75918,                  !- Minimum Value of x
    1.13877;                  !- Maximum Value of x

Curve:Quadratic,
    Curve Quadratic 3,        !- Name
    0.771,                    !- Coefficient1 Constant
    0.229,                    !- Coefficient2 x
    0,                        !- Coefficient3 x2
    0,                        !- Minimum Value of x
    1;                        !- Maximum Value of x

Curve:Biquadratic,
    Curve Biquadratic 1,      !- Name
    0.42415,                  !- Coefficient1 Constant
    0.04426,                  !- Coefficient2 x
    -0.00042,                 !- Coefficient3 x2
    0.00333,                  !- Coefficient4 y
    -8e-05,                   !- Coefficient5 y2
    -0.00021,                 !- Coefficient6 xy
    17,                       !- Minimum Value of x
    22,                       !- Maximum Value of x
    13,                       !- Minimum Value of y
    46;                       !- Maximum Value of y

Curve:Biquadratic,
    Curve Biquadratic 2,      !- Name
    1.23649,                  !- Coefficient1 Constant
    -0.02431,                 !- Coefficient2 x
    0.00057,                  !- Coefficient3 x2
    -0.01434,                 !- Coefficient4 y
    0.00063,                  !- Coefficient5 y2
    -0.00038,                 !- Coefficient6 xy
    17,                       !- Minimum Value of x
    22,                       !- Maximum Value of x
    13,                       !- Minimum Value of y
    46;                       !- Maximum Value of y

Curve:Biquadratic,
    Curve Biquadratic 3,      !- Name
    0.42415,                  !- Coefficient1 Constant
    0.04426,                  !- Coefficient2 x
    -0.00042,                 !- Coefficient3 x2
    0.00333,                  !- Coefficient4 y
    -8e-05,                   !- Coefficient5 y2
    -0.00021,                 !- Coefficient6 xy
    17,                       !- Minimum Value of x
    22,                       !- Maximum Value of x
    13,                       !- Minimum Value of y
    46;                       !- Maximum Value of y

Curve:Biquadratic,
    Curve Biquadratic 4,      !- Name
    1.23649,                  !- Coefficient1 Constant
    -0.02431,                 !- Coefficient2 x
    0.00057,                  !- Coefficient3 x2
    -0.01434,                 !- Coefficient4 y
    0.00063,                  !- Coefficient5 y2
    -0.00038,                 !- Coefficient6 xy
    17,                       !- Minimum Value of x
    22,                       !- Maximum Value of x
    13,                       !- Minimum Value of y
    46;                       !- Maximum Value of y

LifeCycleCost:Parameters,
    Life Cycle Cost Parameters,    !- Name
    EndOfYear,                !- Discounting Convention
    ConstantDollar,           !- Inflation Approach
    0.03,                     !- Real Discount Rate
    ,                         !- Nominal Discount Rate
    ,                         !- Inflation
    ,                         !- Base Date Month
    2011,                     !- Base Date Year
    ,                         !- Service Date Month
    2011,                     !- Service Date Year
    25,                       !- Length of Study Period in Years
    ,                         !- Tax rate
    None;                     !- Depreciation Method

LifeCycleCost:NonrecurringCost,
    Default Cost,             !- Name
    Construction,             !- Category
    0,                        !- Cost
    ServicePeriod;            !- Start of Costs

LifeCycleCost:UsePriceEscalation,
    U.S. Avg  Commercial-Electricity,    !- LCC Price Escalation Name
    Electricity,              !- Resource
    2011,                     !- Escalation Start Year
    January,                  !- Escalation Start Month
    0.9838,                   !- Year 1 Escalation
    0.973,                    !- Year 2 Escalation
    0.9632,                   !- Year 3 Escalation
    0.9611,                   !- Year 4 Escalation
    0.9571,                   !- Year 5 Escalation
    0.9553,                   !- Year 6 Escalation
    0.9539,                   !- Year 7 Escalation
    0.9521,                   !- Year 8 Escalation
    0.9546,                   !- Year 9 Escalation
    0.955,                    !- Year 10 Escalation
    0.9553,                   !- Year 11 Escalation
    0.9564,                   !- Year 12 Escalation
    0.9575,                   !- Year 13 Escalation
    0.9596,                   !- Year 14 Escalation
    0.9618,                   !- Year 15 Escalation
    0.9614,                   !- Year 16 Escalation
    0.9618,                   !- Year 17 Escalation
    0.9618,                   !- Year 18 Escalation
    0.9593,                   !- Year 19 Escalation
    0.9589,                   !- Year 20 Escalation
    0.9607,                   !- Year 21 Escalation
    0.9625,                   !- Year 22 Escalation
    0.965,                    !- Year 23 Escalation
    0.9708,                   !- Year 24 Escalation
    0.9751,                   !- Year 25 Escalation
    0.9762,                   !- Year 26 Escalation
    0.9766,                   !- Year 27 Escalation
    0.9766,                   !- Year 28 Escalation
    0.9769,                   !- Year 29 Escalation
    0.9773;                   !- Year 30 Escalation

LifeCycleCost:UsePriceEscalation,
    U.S. Avg  Commercial-Distillate Oil,    !- LCC Price Escalation Name
    FuelOilNo1,               !- Resource
    2011,                     !- Escalation Start Year
    January,                  !- Escalation Start Month
    0.9714,                   !- Year 1 Escalation
    0.973,                    !- Year 2 Escalation
    0.9942,                   !- Year 3 Escalation
    1.0164,                   !- Year 4 Escalation
    1.0541,                   !- Year 5 Escalation
    1.0928,                   !- Year 6 Escalation
    1.1267,                   !- Year 7 Escalation
    1.158,                    !- Year 8 Escalation
    1.1792,                   !- Year 9 Escalation
    1.1967,                   !- Year 10 Escalation
    1.22,                     !- Year 11 Escalation
    1.2333,                   !- Year 12 Escalation
    1.2566,                   !- Year 13 Escalation
    1.2709,                   !- Year 14 Escalation
    1.2826,                   !- Year 15 Escalation
    1.2985,                   !- Year 16 Escalation
    1.3102,                   !- Year 17 Escalation
    1.325,                    !- Year 18 Escalation
    1.3261,                   !- Year 19 Escalation
    1.3282,                   !- Year 20 Escalation
    1.3324,                   !- Year 21 Escalation
    1.3356,                   !- Year 22 Escalation
    1.3431,                   !- Year 23 Escalation
    1.351,                    !- Year 24 Escalation
    1.3568,                   !- Year 25 Escalation
    1.3606,                   !- Year 26 Escalation
    1.3637,                   !- Year 27 Escalation
    1.3674,                   !- Year 28 Escalation
    1.3706,                   !- Year 29 Escalation
    1.3743;                   !- Year 30 Escalation

LifeCycleCost:UsePriceEscalation,
    U.S. Avg  Commercial-Residual Oil,    !- LCC Price Escalation Name
    FuelOilNo2,               !- Resource
    2011,                     !- Escalation Start Year
    January,                  !- Escalation Start Month
    0.8469,                   !- Year 1 Escalation
    0.8257,                   !- Year 2 Escalation
    0.8681,                   !- Year 3 Escalation
    0.8988,                   !- Year 4 Escalation
    0.9289,                   !- Year 5 Escalation
    0.9604,                   !- Year 6 Escalation
    0.9897,                   !- Year 7 Escalation
    1.0075,                   !- Year 8 Escalation
    1.0314,                   !- Year 9 Escalation
    1.0554,                   !- Year 10 Escalation
    1.0861,                   !- Year 11 Escalation
    1.1278,                   !- Year 12 Escalation
    1.1497,                   !- Year 13 Escalation
    1.162,                    !- Year 14 Escalation
    1.1743,                   !- Year 15 Escalation
    1.1852,                   !- Year 16 Escalation
    1.1948,                   !- Year 17 Escalation
    1.2037,                   !- Year 18 Escalation
    1.2071,                   !- Year 19 Escalation
    1.2119,                   !- Year 20 Escalation
    1.2139,                   !- Year 21 Escalation
    1.2194,                   !- Year 22 Escalation
    1.2276,                   !- Year 23 Escalation
    1.2365,                   !- Year 24 Escalation
    1.242,                    !- Year 25 Escalation
    1.2461,                   !- Year 26 Escalation
    1.2509,                   !- Year 27 Escalation
    1.255,                    !- Year 28 Escalation
    1.2591,                   !- Year 29 Escalation
    1.2638;                   !- Year 30 Escalation

LifeCycleCost:UsePriceEscalation,
    U.S. Avg  Commercial-Natural gas,    !- LCC Price Escalation Name
    NaturalGas,               !- Resource
    2011,                     !- Escalation Start Year
    January,                  !- Escalation Start Month
    0.9823,                   !- Year 1 Escalation
    0.9557,                   !- Year 2 Escalation
    0.9279,                   !- Year 3 Escalation
    0.9257,                   !- Year 4 Escalation
    0.9346,                   !- Year 5 Escalation
    0.9412,                   !- Year 6 Escalation
    0.9512,                   !- Year 7 Escalation
    0.9645,                   !- Year 8 Escalation
    0.9856,                   !- Year 9 Escalation
    1.0067,                   !- Year 10 Escalation
    1.0222,                   !- Year 11 Escalation
    1.041,                    !- Year 12 Escalation
    1.061,                    !- Year 13 Escalation
    1.0787,                   !- Year 14 Escalation
    1.0942,                   !- Year 15 Escalation
    1.1098,                   !- Year 16 Escalation
    1.122,                    !- Year 17 Escalation
    1.1308,                   !- Year 18 Escalation
    1.1386,                   !- Year 19 Escalation
    1.1486,                   !- Year 20 Escalation
    1.1619,                   !- Year 21 Escalation
    1.1763,                   !- Year 22 Escalation
    1.1918,                   !- Year 23 Escalation
    1.2118,                   !- Year 24 Escalation
    1.2284,                   !- Year 25 Escalation
    1.2439,                   !- Year 26 Escalation
    1.2605,                   !- Year 27 Escalation
    1.2772,                   !- Year 28 Escalation
    1.2938,                   !- Year 29 Escalation
    1.3115;                   !- Year 30 Escalation

LifeCycleCost:UsePriceEscalation,
    U.S. Avg  Commercial-Coal,    !- LCC Price Escalation Name
    Coal,                     !- Resource
    2011,                     !- Escalation Start Year
    January,                  !- Escalation Start Month
    0.997,                    !- Year 1 Escalation
    1.0089,                   !- Year 2 Escalation
    1.0089,                   !- Year 3 Escalation
    0.9941,                   !- Year 4 Escalation
    0.9941,                   !- Year 5 Escalation
    1,                        !- Year 6 Escalation
    1.003,                    !- Year 7 Escalation
    1.0059,                   !- Year 8 Escalation
    1.0089,                   !- Year 9 Escalation
    1.0119,                   !- Year 10 Escalation
    1.0148,                   !- Year 11 Escalation
    1.0178,                   !- Year 12 Escalation
    1.0208,                   !- Year 13 Escalation
    1.0267,                   !- Year 14 Escalation
    1.0297,                   !- Year 15 Escalation
    1.0356,                   !- Year 16 Escalation
    1.0415,                   !- Year 17 Escalation
    1.0534,                   !- Year 18 Escalation
    1.0564,                   !- Year 19 Escalation
    1.0593,                   !- Year 20 Escalation
    1.0653,                   !- Year 21 Escalation
    1.0712,                   !- Year 22 Escalation
    1.0742,                   !- Year 23 Escalation
    1.0801,                   !- Year 24 Escalation
    1.0831,                   !- Year 25 Escalation
    1.0831,                   !- Year 26 Escalation
    1.0861,                   !- Year 27 Escalation
    1.089,                    !- Year 28 Escalation
    1.092,                    !- Year 29 Escalation
    1.095;                    !- Year 30 Escalation

Output:VariableDictionary,
    IDF,                      !- Key Field
    Unsorted;                 !- Sort Option

Output:Table:SummaryReports,
    AllSummary;               !- Report 1 Name

OutputControl:Table:Style,
    HTML;                     !- Column Separator

Output:Variable,
  *,                                      !- Key Value
  Cooling Coil Electricity Energy,        !- Variable Name
  Timestep;                               !- Reporting Frequency

Output:Variable,
  *,                                      !- Key Value
  Fan Electricity Energy,                 !- Variable Name
  Timestep;                               !- Reporting Frequency

Output:Variable,
  *,                                      !- Key Value
  Site Outdoor Air Drybulb Temperature,   !- Variable Name
  Timestep;                               !- Reporting Frequency

Output:Variable,
  *,                                      !- Key Value
  Zone Air Temperature,                   !- Variable Name
  Timestep;                               !- Reporting Frequency

Output:Variable,
  *,                                      !- Key Value
  Heating Coil Electricity Energy,        !- Variable Name
  Timestep;

Output:Variable,
  *,                                      !- Key Value
  Zone Air System Sensible Cooling Energy,        !- Variable Name
  Timestep;

Output:Variable,
  *,                                      !- Key Value
  Zone Air System Sensible Heating Energy,        !- Variable Name
  Timestep;

OUTPUT:METER,
    Electricity:Facility,     !- Key Name
    Timestep;                 !- Reporting Frequency

OUTPUT:METER,
    NaturalGas:Facility,      !- Key Name
    Timestep;                 !- Reporting Frequency

OUTPUT:METER,
    DistrictCooling:Facility,    !- Key Name
    Timestep;                 !- Reporting Frequency

OUTPUT:METER,
    DistrictHeating:Facility,    !- Key Name
    Timestep;                 !- Reporting Frequency

Output:SQLite,
    SimpleAndTabular;         !- Option Type