Program Version,EnergyPlus, Version 22.2.0-c249759bad, YMD=2024.07.10 23:28
! <Version>, Version ID
 Version, 22.2
! <Timesteps per Hour>, #TimeSteps, Minutes per TimeStep {minutes}
 Timesteps per Hour,  2, 30
! <System Convergence Limits>, Minimum System TimeStep {minutes}, Max HVAC Iterations, Minimum Plant Iterations, Maximum Plant Iterations
 System Convergence Limits, 1, 20, 2, 8
! <Simulation Control>, Do Zone Sizing, Do System Sizing, Do Plant Sizing, Do Design Days, Do Weather Simulation, Do HVAC Sizing Simulation
 Simulation Control, Yes, Yes, No, Yes, Yes, No
! <Performance Precision Tradeoffs>, Use Coil Direct Simulation, Zone Radiant Exchange Algorithm, Override Mode, Number of Timestep In Hour, Force Euler Method, Minimum Number of Warmup Days, Force Suppress All Begin Environment Resets, Minimum System Timestep, MaxZoneTempDiff, MaxAllowedDelTemp
 Performance Precision Tradeoffs, No, ScriptF, Normal, 2, No, 1, No, 1.0, 0.300, 2.0000E-003
! <Output Reporting Tolerances>, Tolerance for Time Heating Setpoint Not Met, Tolerance for Zone Cooling Setpoint Not Met Time
 Output Reporting Tolerances, 0.200, 0.200, 
! <Site:GroundTemperature:BuildingSurface>,Jan{C},Feb{C},Mar{C},Apr{C},May{C},Jun{C},Jul{C},Aug{C},Sep{C},Oct{C},Nov{C},Dec{C}
 Site:GroundTemperature:BuildingSurface,  18.00,  18.00,  18.00,  18.00,  18.00,  18.00,  18.00,  18.00,  18.00,  18.00,  18.00,  18.00
! <Site:GroundTemperature:FCfactorMethod>,Jan{C},Feb{C},Mar{C},Apr{C},May{C},Jun{C},Jul{C},Aug{C},Sep{C},Oct{C},Nov{C},Dec{C}
 Site:GroundTemperature:FCfactorMethod,   4.75,   6.12,   8.80,  11.33,  16.12,  18.65,  19.34,  18.06,  15.11,  11.42,   7.80,   5.40
! <Site:GroundTemperature:Shallow>,Jan{C},Feb{C},Mar{C},Apr{C},May{C},Jun{C},Jul{C},Aug{C},Sep{C},Oct{C},Nov{C},Dec{C}
 Site:GroundTemperature:Shallow,  13.00,  13.00,  13.00,  13.00,  13.00,  13.00,  13.00,  13.00,  13.00,  13.00,  13.00,  13.00
! <Site:GroundTemperature:Deep>,Jan{C},Feb{C},Mar{C},Apr{C},May{C},Jun{C},Jul{C},Aug{C},Sep{C},Oct{C},Nov{C},Dec{C}
 Site:GroundTemperature:Deep,  16.00,  16.00,  16.00,  16.00,  16.00,  16.00,  16.00,  16.00,  16.00,  16.00,  16.00,  16.00
! <Site:GroundReflectance>,Jan{dimensionless},Feb{dimensionless},Mar{dimensionless},Apr{dimensionless},May{dimensionless},Jun{dimensionless},Jul{dimensionless},Aug{dimensionless},Sep{dimensionless},Oct{dimensionless},Nov{dimensionless},Dec{dimensionless}
 Site:GroundReflectance,  0.20,  0.20,  0.20,  0.20,  0.20,  0.20,  0.20,  0.20,  0.20,  0.20,  0.20,  0.20
! <Site:GroundReflectance:SnowModifier>, Normal, Daylighting {dimensionless}
 Site:GroundReflectance:SnowModifier,   1.000,   1.000
! <Site:GroundReflectance:Snow>,Jan{dimensionless},Feb{dimensionless},Mar{dimensionless},Apr{dimensionless},May{dimensionless},Jun{dimensionless},Jul{dimensionless},Aug{dimensionless},Sep{dimensionless},Oct{dimensionless},Nov{dimensionless},Dec{dimensionless}
 Site:GroundReflectance:Snow,  0.20,  0.20,  0.20,  0.20,  0.20,  0.20,  0.20,  0.20,  0.20,  0.20,  0.20,  0.20
! <Site:GroundReflectance:Snow:Daylighting>,Jan{dimensionless},Feb{dimensionless},Mar{dimensionless},Apr{dimensionless},May{dimensionless},Jun{dimensionless},Jul{dimensionless},Aug{dimensionless},Sep{dimensionless},Oct{dimensionless},Nov{dimensionless},Dec{dimensionless}
 Site:GroundReflectance:Snow:Daylighting,  0.20,  0.20,  0.20,  0.20,  0.20,  0.20,  0.20,  0.20,  0.20,  0.20,  0.20,  0.20
! <Environment:Weather Station>,Wind Sensor Height Above Ground {m},Wind Speed Profile Exponent {},Wind Speed Profile Boundary Layer Thickness {m},Air Temperature Sensor Height Above Ground {m},Wind Speed Modifier Coefficient-Internal,Temperature Modifier Coefficient-Internal
Environment:Weather Station,10.000,0.140,270.000,1.500,1.586,9.750E-003
! <Site:Location>, Location Name, Latitude {N+/S- Deg}, Longitude {E+/W- Deg},  Time Zone Number {GMT+/-}, Elevation {m},  Standard Pressure at Elevation {Pa}, Standard RhoAir at Elevation
Site:Location,Paris-Orly.AP IF FRA SRC-TMYx WMO#=071490,48.72,2.38,1.00,90.00,100248,1.1915
! <Site Water Mains Temperature Information>,Calculation Method{},Water Mains Temperature Schedule Name{},Annual Average Outdoor Air Temperature{C},Maximum Difference In Monthly Average Outdoor Air Temperatures{deltaC},Fixed Default Water Mains Temperature{C}
Site Water Mains Temperature Information,FixedDefault,NA,NA,NA,10.0
! <Building Information>, Building Name,North Axis {deg},Terrain,  Loads Convergence Tolerance Value,Temperature Convergence Tolerance Value,  Solar Distribution,Maximum Number of Warmup Days,Minimum Number of Warmup Days
 Building Information,Building 1,0.000,Suburbs,4.00000E-002,0.40000,FullExterior,25,1
! <Inside Convection Algorithm>, Algorithm {Simple | TARP | CeilingDiffuser | AdaptiveConvectionAlgorithm}
Inside Convection Algorithm,TARP
! <Outside Convection Algorithm>, Algorithm {SimpleCombined | TARP | MoWitt | DOE-2 | AdaptiveConvectionAlgorithm}
Outside Convection Algorithm,DOE-2
! <Sky Radiance Distribution>, Value {Anisotropic}
Sky Radiance Distribution,Anisotropic
! <Zone Air Solution Algorithm>, Value {ThirdOrderBackwardDifference | AnalyticalSolution | EulerMethod}
 Zone Air Solution Algorithm, ThirdOrderBackwardDifference
! <Zone Air Carbon Dioxide Balance Simulation>, Simulation {Yes/No}, Carbon Dioxide Concentration
 Zone Air Carbon Dioxide Balance Simulation, No,N/A
! <Zone Air Generic Contaminant Balance Simulation>, Simulation {Yes/No}, Generic Contaminant Concentration
 Zone Air Generic Contaminant Balance Simulation, No,N/A
! <Zone Air Mass Flow Balance Simulation>, Enforce Mass Balance, Adjust Zone Mixing and Return {AdjustMixingOnly | AdjustReturnOnly | AdjustMixingThenReturn | AdjustReturnThenMixing | None}, Adjust Zone Infiltration {AddInfiltration | AdjustInfiltration | None}, Infiltration Zones {MixingSourceZonesOnly | AllZones}
 Zone Air Mass Flow Balance Simulation, No,N/A,N/A,N/A
! <HVACSystemRootFindingAlgorithm>, Value {RegulaFalsi | Bisection | BisectionThenRegulaFalsi | RegulaFalsiThenBisection}
 HVACSystemRootFindingAlgorithm, RegulaFalsi
! <Environment:Site Atmospheric Variation>,Wind Speed Profile Exponent {},Wind Speed Profile Boundary Layer Thickness {m},Air Temperature Gradient Coefficient {K/m}
Environment:Site Atmospheric Variation,0.220,370.000,6.500000E-003
! <Surface Geometry>,Starting Corner,Vertex Input Direction,Coordinate System,Daylight Reference Point Coordinate System,Rectangular (Simple) Surface Coordinate System
 Surface Geometry,UpperLeftCorner,Counterclockwise,RelativeCoordinateSystem,RelativeCoordinateSystem,RelativeToZoneOrigin
! <Surface Heat Transfer Algorithm>, Value {CTF - ConductionTransferFunction | EMPD - MoisturePenetrationDepthConductionTransferFunction | CondFD - ConductionFiniteDifference | HAMT - CombinedHeatAndMoistureFiniteElement} - Description,Inside Surface Max Temperature Limit{C}, Surface Convection Coefficient Lower Limit {W/m2-K}, Surface Convection Coefficient Upper Limit {W/m2-K}
Surface Heat Transfer Algorithm, CTF - ConductionTransferFunction,200,0.10,1000.0
! <Shading Summary>, Number of Fixed Detached Shades, Number of Building Detached Shades, Number of Attached Shades
 Shading Summary,0,0,0
! <Zone Summary>, Number of Zones, Number of Zone Surfaces, Number of SubSurfaces
 Zone Summary,9,114,36
! <Zone Information>,Zone Name,North Axis {deg},Origin X-Coordinate {m},Origin Y-Coordinate {m},Origin Z-Coordinate {m},Centroid X-Coordinate {m},Centroid Y-Coordinate {m},Centroid Z-Coordinate {m},Type,Zone Multiplier,Zone List Multiplier,Minimum X {m},Maximum X {m},Minimum Y {m},Maximum Y {m},Minimum Z {m},Maximum Z {m},Ceiling Height {m},Volume {m3},Zone Inside Convection Algorithm {Simple-Detailed-CeilingDiffuser-TrombeWall},Zone Outside Convection Algorithm {Simple-Detailed-Tarp-MoWitt-DOE-2-BLAST}, Floor Area {m2},Exterior Gross Wall Area {m2},Exterior Net Wall Area {m2},Exterior Window Area {m2}, Number of Surfaces, Number of SubSurfaces, Number of Shading SubSurfaces,  Part of Total Building Area
 Zone Information, TZ1_OFFICEL,0.0,0.00,0.00,0.00,11.12,6.08,1.50,1,1,1,5.00,18.00,0.00,12.00,0.00,3.00,3.00,373.50,TARP,DOE-2,124.50,78.00,72.90,5.10,13,10,0,Yes
 Zone Information, TZ2_OFFICES,0.0,0.00,0.00,0.00,9.00,12.00,1.50,1,1,1,7.00,11.00,10.00,14.00,0.00,3.00,3.00,48.00,TARP,DOE-2,16.00,12.00,10.30,1.70,7,3,0,Yes
 Zone Information, TZ3_CONFERENCE,0.0,0.00,0.00,0.00,14.50,12.00,1.50,1,1,1,11.00,18.00,10.00,14.00,0.00,3.00,3.00,84.00,TARP,DOE-2,28.00,21.00,17.60,3.40,6,4,0,Yes
 Zone Information, TZ4_KITCHEN,0.0,0.00,0.00,0.00,21.50,6.50,1.50,1,1,1,18.00,25.00,5.00,8.00,0.00,3.00,3.00,63.00,TARP,DOE-2,21.00,0.00,0.00,0.00,6,4,0,Yes
 Zone Information, TZ5_OFFICEM,0.0,0.00,0.00,0.00,27.45,7.61,1.50,1,1,1,25.00,31.00,1.00,14.00,0.00,3.00,3.00,186.00,TARP,DOE-2,62.00,51.00,47.60,3.40,10,6,0,Yes
 Zone Information, TZ6_BREAKROOM,0.0,0.00,0.00,0.00,29.00,12.00,1.50,1,1,1,27.00,31.00,10.00,14.00,0.00,3.00,3.00,48.00,TARP,DOE-2,16.00,24.00,24.00,0.00,6,2,0,Yes
 Zone Information, TZ7_NO,0.0,0.00,0.00,0.00,3.11,12.18,1.50,1,1,1,0.00,7.00,10.50,14.00,0.00,3.00,3.00,55.50,TARP,DOE-2,18.50,60.00,56.44,1.70,13,3,0,Yes
 Zone Information, TZ7_NO (2),0.0,0.00,0.00,0.00,21.50,11.00,1.50,1,1,1,18.00,25.00,8.00,14.00,0.00,3.00,3.00,126.00,TARP,DOE-2,42.00,21.00,21.00,0.00,7,2,0,Yes
 Zone Information, TZ7_NO (3),0.0,0.00,0.00,0.00,21.50,1.93,1.50,1,1,1,18.00,25.00,-1.00,5.00,0.00,3.00,3.00,102.00,TARP,DOE-2,34.00,33.00,33.00,0.00,10,2,0,Yes
! <Zone Internal Gains Nominal>,Zone Name, Floor Area {m2},# Occupants,Area per Occupant {m2/person},Occupant per Area {person/m2},Interior Lighting {W/m2},Electric Load {W/m2},Gas Load {W/m2},Other Load {W/m2},Hot Water Eq {W/m2},Steam Equipment {W/m2},Sum Loads per Area {W/m2},Outdoor Controlled Baseboard Heat
 Zone Internal Gains Nominal, TZ1_OFFICEL,124.50,100.0,1.245,0.803,10.656,162.249,0.000,0.000,0.000,0.000,172.905,No
 Zone Internal Gains Nominal, TZ2_OFFICES,16.00,100.0,0.160,6.250,10.656,1262.500,0.000,0.000,0.000,0.000,1273.156,No
 Zone Internal Gains Nominal, TZ3_CONFERENCE,28.00,100.0,0.280,3.571,12.594,364.286,0.000,0.000,0.000,0.000,376.879,No
 Zone Internal Gains Nominal, TZ4_KITCHEN,21.00,100.0,0.210,4.762,11.625,247.619,0.000,0.000,0.000,0.000,259.244,No
 Zone Internal Gains Nominal, TZ5_OFFICEM,62.00,100.0,0.620,1.613,10.656,325.806,0.000,0.000,0.000,0.000,336.463,No
 Zone Internal Gains Nominal, TZ6_BREAKROOM,16.00,100.0,0.160,6.250,11.625,325.000,0.000,0.000,0.000,0.000,336.625,No
 Zone Internal Gains Nominal, TZ7_NO,18.50,100.0,0.185,5.405,4.844,0.000,0.000,0.000,0.000,0.000,4.844,No
 Zone Internal Gains Nominal, TZ7_NO (2),42.00,100.0,0.420,2.381,4.844,0.000,0.000,0.000,0.000,0.000,4.844,No
 Zone Internal Gains Nominal, TZ7_NO (3),34.00,100.0,0.340,2.941,4.844,0.000,0.000,0.000,0.000,0.000,4.844,No
! <People Internal Gains Nominal>,Name,Schedule Name,Zone Name,Zone Floor Area {m2},# Zone Occupants,Number of People {},People/Floor Area {person/m2},Floor Area per person {m2/person},Fraction Radiant,Fraction Convected,Sensible Fraction Calculation,Activity level,ASHRAE 55 Warnings,Carbon Dioxide Generation Rate,Nominal Minimum Number of People,Nominal Maximum Number of People
 People Internal Gains Nominal, SPACE OFFICEL PEOPLE OFFICEL,PEOPLE_SCHEDULE_0,TZ1_OFFICEL,124.50,100.0,100.0,0.803,1.245,0.300,0.700,AutoCalculate,OFFICE ACTIVITY,No,3.8200E-008,0,0
 People Internal Gains Nominal, SPACE OFFICES PEOPLE OFFICES,PEOPLE_SCHEDULE_1,TZ2_OFFICES,16.00,100.0,100.0,6.250,0.160,0.300,0.700,AutoCalculate,OFFICE ACTIVITY,No,3.8200E-008,0,0
 People Internal Gains Nominal, SPACE CONFERENCE PEOPLE CONFERENCE,PEOPLE_SCHEDULE_2,TZ3_CONFERENCE,28.00,100.0,100.0,3.571,0.280,0.300,0.700,AutoCalculate,OFFICE ACTIVITY,No,3.8200E-008,0,0
 People Internal Gains Nominal, SPACE KITCHEN PEOPLE LOUNGE,PEOPLE_SCHEDULE_3,TZ4_KITCHEN,21.00,100.0,100.0,4.762,0.210,0.300,0.700,AutoCalculate,OFFICE ACTIVITY,No,3.8200E-008,0,0
 People Internal Gains Nominal, SPACE BREAKROOM PEOPLE LOUNGE,PEOPLE_SCHEDULE_3,TZ6_BREAKROOM,16.00,100.0,100.0,6.250,0.160,0.300,0.700,AutoCalculate,OFFICE ACTIVITY,No,3.8200E-008,0,0
 People Internal Gains Nominal, SPACE OFFICEM PEOPLE OFFICEM,PEOPLE_SCHEDULE_4,TZ5_OFFICEM,62.00,100.0,100.0,1.613,0.620,0.300,0.700,AutoCalculate,OFFICE ACTIVITY,No,3.8200E-008,0,0
 People Internal Gains Nominal, SPACE NO HVAC 1 PEOPLE 1,PEOPLE_SCHEDULE_5,TZ7_NO,18.50,100.0,100.0,5.405,0.185,0.300,0.700,AutoCalculate,OFFICE ACTIVITY,No,3.8200E-008,0,0
 People Internal Gains Nominal, SPACE NO HVAC 3 PEOPLE 1,PEOPLE_SCHEDULE_5,TZ7_NO (3),34.00,100.0,100.0,2.941,0.340,0.300,0.700,AutoCalculate,OFFICE ACTIVITY,No,3.8200E-008,0,0
 People Internal Gains Nominal, SPACE NO HVAC 2 PEOPLE 1,PEOPLE_SCHEDULE_5,TZ7_NO (2),42.00,100.0,100.0,2.381,0.420,0.300,0.700,AutoCalculate,OFFICE ACTIVITY,No,3.8200E-008,0,0
! <Lights Internal Gains Nominal>,Name,Schedule Name,Zone Name,Zone Floor Area {m2},# Zone Occupants,Lighting Level {W},Lights/Floor Area {W/m2},Lights per person {W/person},Fraction Return Air,Fraction Radiant,Fraction Short Wave,Fraction Convected,Fraction Replaceable,End-Use Category,Nominal Minimum Lighting Level {W},Nominal Maximum Lighting Level {W}
 Lights Internal Gains Nominal, SPACE OFFICEL 189.1-2009 - OFFICE - CLOSEDOFFICE - CZ4-8 LIGHTS,OFFICE BLDG LIGHT,TZ1_OFFICEL,124.50,100.0,1326.706,10.656,13.267,0.000,0.000,0.000,1.000,1.000,General,0.000,1326.706
 Lights Internal Gains Nominal, SPACE OFFICES 189.1-2009 - OFFICE - CLOSEDOFFICE - CZ4-8 LIGHTS 2,OFFICE BLDG LIGHT,TZ2_OFFICES,16.00,100.0,170.500,10.656,1.705,0.000,0.000,0.000,1.000,1.000,General,0.000,170.500
 Lights Internal Gains Nominal, SPACE CONFERENCE 189.1-2009 - OFFICE - CONFERENCE - CZ4-8 LIGHTS,OFFICE BLDG LIGHT,TZ3_CONFERENCE,28.00,100.0,352.626,12.594,3.526,0.000,0.000,0.000,1.000,1.000,General,0.000,352.626
 Lights Internal Gains Nominal, SPACE KITCHEN 189.1-2009 - OFFICE - BREAKROOM - CZ4-8 LIGHTS,OFFICE BLDG LIGHT,TZ4_KITCHEN,21.00,100.0,244.125,11.625,2.441,0.000,0.000,0.000,1.000,1.000,General,0.000,244.125
 Lights Internal Gains Nominal, SPACE BREAKROOM 189.1-2009 - OFFICE - BREAKROOM - CZ4-8 LIGHTS,OFFICE BLDG LIGHT,TZ6_BREAKROOM,16.00,100.0,186.000,11.625,1.860,0.000,0.000,0.000,1.000,1.000,General,0.000,186.000
 Lights Internal Gains Nominal, SPACE OFFICEM 189.1-2009 - OFFICE - CLOSEDOFFICE - CZ4-8 LIGHTS 1,OFFICE BLDG LIGHT,TZ5_OFFICEM,62.00,100.0,660.689,10.656,6.607,0.000,0.000,0.000,1.000,1.000,General,0.000,660.689
 Lights Internal Gains Nominal, SPACE NO HVAC 1 189.1-2009 - OFFICE - CORRIDOR - CZ4-8 LIGHTS,OFFICE BLDG LIGHT,TZ7_NO,18.50,100.0,89.610,4.844,0.896,0.000,0.000,0.000,1.000,1.000,General,0.000,89.610
 Lights Internal Gains Nominal, SPACE NO HVAC 3 189.1-2009 - OFFICE - CORRIDOR - CZ4-8 LIGHTS,OFFICE BLDG LIGHT,TZ7_NO (3),34.00,100.0,164.688,4.844,1.647,0.000,0.000,0.000,1.000,1.000,General,0.000,164.688
 Lights Internal Gains Nominal, SPACE NO HVAC 2 189.1-2009 - OFFICE - CORRIDOR - CZ4-8 LIGHTS,OFFICE BLDG LIGHT,TZ7_NO (2),42.00,100.0,203.438,4.844,2.034,0.000,0.000,0.000,1.000,1.000,General,0.000,203.438
! <ElectricEquipment Internal Gains Nominal>,Name,Schedule Name,Zone Name,Zone Floor Area {m2},# Zone Occupants,Equipment Level {W},Equipment/Floor Area {W/m2},Equipment per person {W/person},Fraction Latent,Fraction Radiant,Fraction Lost,Fraction Convected,End-Use SubCategory,Nominal Minimum Equipment Level {W},Nominal Maximum Equipment Level {W}
 ElectricEquipment Internal Gains Nominal, SPACE OFFICEL 189.1-2009 - OFFICE - CLOSEDOFFICE - CZ4-8 ELECTRIC EQUIPMENT,OFFICE BLDG EQUIP,TZ1_OFFICEL,124.50,100.0,20000.000,160.643,200.000,0.000,0.300,0.000,0.700,General,0.000,20000.000
 ElectricEquipment Internal Gains Nominal, SPACE OFFICEL ELECTRIC EQUIPMENT 4,OFFICE BLDG EQUIP,TZ1_OFFICEL,124.50,100.0,200.000,1.606,2.000,0.000,0.300,0.000,0.700,General,0.000,200.000
 ElectricEquipment Internal Gains Nominal, SPACE OFFICES 189.1-2009 - OFFICE - CLOSEDOFFICE - CZ4-8 ELECTRIC EQUIPMENT 2,OFFICE BLDG EQUIP,TZ2_OFFICES,16.00,100.0,20000.000,1250.000,200.000,0.000,0.300,0.000,0.700,General,0.000,20000.000
 ElectricEquipment Internal Gains Nominal, SPACE OFFICES ELECTRIC EQUIPMENT 6,OFFICE BLDG EQUIP,TZ2_OFFICES,16.00,100.0,200.000,12.500,2.000,0.000,0.300,0.000,0.700,General,0.000,200.000
 ElectricEquipment Internal Gains Nominal, SPACE CONFERENCE 189.1-2009 - OFFICE - CONFERENCE - CZ4-8 ELECTRIC EQUIPMENT,OFFICE BLDG EQUIP,TZ3_CONFERENCE,28.00,100.0,10000.000,357.143,100.000,0.000,0.300,0.000,0.700,General,0.000,10000.000
 ElectricEquipment Internal Gains Nominal, SPACE CONFERENCE ELECTRIC EQUIPMENT 2,OFFICE BLDG EQUIP,TZ3_CONFERENCE,28.00,100.0,200.000,7.143,2.000,0.000,0.300,0.000,0.700,General,0.000,200.000
 ElectricEquipment Internal Gains Nominal, SPACE KITCHEN 189.1-2009 - OFFICE - BREAKROOM - CZ4-8 ELECTRIC EQUIPMENT,OFFICE BLDG EQUIP,TZ4_KITCHEN,21.00,100.0,5000.000,238.095,50.000,0.000,0.300,0.000,0.700,General,0.000,5000.000
 ElectricEquipment Internal Gains Nominal, SPACE BREAKROOM 189.1-2009 - OFFICE - BREAKROOM - CZ4-8 ELECTRIC EQUIPMENT,OFFICE BLDG EQUIP,TZ6_BREAKROOM,16.00,100.0,5000.000,312.500,50.000,0.000,0.300,0.000,0.700,General,0.000,5000.000
 ElectricEquipment Internal Gains Nominal, SPACE KITCHEN ELECTRIC EQUIPMENT 1,OFFICE BLDG EQUIP,TZ4_KITCHEN,21.00,100.0,200.000,9.524,2.000,0.000,0.300,0.000,0.700,General,0.000,200.000
 ElectricEquipment Internal Gains Nominal, SPACE BREAKROOM ELECTRIC EQUIPMENT 1,OFFICE BLDG EQUIP,TZ6_BREAKROOM,16.00,100.0,200.000,12.500,2.000,0.000,0.300,0.000,0.700,General,0.000,200.000
 ElectricEquipment Internal Gains Nominal, SPACE OFFICEM 189.1-2009 - OFFICE - CLOSEDOFFICE - CZ4-8 ELECTRIC EQUIPMENT 1,OFFICE BLDG EQUIP,TZ5_OFFICEM,62.00,100.0,20000.000,322.581,200.000,0.000,0.300,0.000,0.700,General,0.000,20000.000
 ElectricEquipment Internal Gains Nominal, SPACE OFFICEM ELECTRIC EQUIPMENT 5,OFFICE BLDG EQUIP,TZ5_OFFICEM,62.00,100.0,200.000,3.226,2.000,0.000,0.300,0.000,0.700,General,0.000,200.000
 ElectricEquipment Internal Gains Nominal, SPACE NO HVAC 1 189.1-2009 - OFFICE - CORRIDOR - CZ4-8 ELECTRIC EQUIPMENT,OFFICE BLDG EQUIP,TZ7_NO,18.50,100.0,0.000,0.000,0.000,0.000,0.000,0.000,1.000,General,0.000,0.000
 ElectricEquipment Internal Gains Nominal, SPACE NO HVAC 3 189.1-2009 - OFFICE - CORRIDOR - CZ4-8 ELECTRIC EQUIPMENT,OFFICE BLDG EQUIP,TZ7_NO (3),34.00,100.0,0.000,0.000,0.000,0.000,0.000,0.000,1.000,General,0.000,0.000
 ElectricEquipment Internal Gains Nominal, SPACE NO HVAC 2 189.1-2009 - OFFICE - CORRIDOR - CZ4-8 ELECTRIC EQUIPMENT,OFFICE BLDG EQUIP,TZ7_NO (2),42.00,100.0,0.000,0.000,0.000,0.000,0.000,0.000,1.000,General,0.000,0.000
! <Shadowing/Sun Position Calculations Annual Simulations>, Shading Calculation Method, Shading Calculation Update Frequency Method, Shading Calculation Update Frequency {days}, Maximum Figures in Shadow Overlap Calculations {}, Polygon Clipping Algorithm, Pixel Counting Resolution, Sky Diffuse Modeling Algorithm, Output External Shading Calculation Results, Disable Self-Shading Within Shading Zone Groups, Disable Self-Shading From Shading Zone Groups to Other Zones
Shadowing/Sun Position Calculations Annual Simulations,PolygonClipping,Periodic,20,15000,SutherlandHodgman,512,SimpleSkyDiffuseModeling,No,No,No
! <ZoneInfiltration Airflow Stats Nominal>,Name,Schedule Name,Zone Name, Zone Floor Area {m2}, # Zone Occupants,Design Volume Flow Rate {m3/s},Volume Flow Rate/Floor Area {m3/s-m2},Volume Flow Rate/Exterior Surface Area {m3/s-m2},ACH - Air Changes per Hour,Equation A - Constant Term Coefficient {},Equation B - Temperature Term Coefficient {1/C},Equation C - Velocity Term Coefficient {s/m}, Equation D - Velocity Squared Term Coefficient {s2/m2}
 ZoneInfiltration Airflow Stats Nominal, SPACE OFFICEL 189.1-2009 - OFFICE - CLOSEDOFFICE - CZ4-8 INFILTRATION,OFFICE INFIL QUARTER ON,TZ1_OFFICEL,124.50,100.0,4.588E-002,3.685E-004,2.266E-004,0.442,1.000,0.000,0.000,0.000
 ZoneInfiltration Airflow Stats Nominal, SPACE OFFICES 189.1-2009 - OFFICE - CLOSEDOFFICE - CZ4-8 INFILTRATION 2,OFFICE INFIL QUARTER ON,TZ2_OFFICES,16.00,100.0,6.344E-003,3.965E-004,2.266E-004,0.476,1.000,0.000,0.000,0.000
 ZoneInfiltration Airflow Stats Nominal, SPACE CONFERENCE 189.1-2009 - OFFICE - CONFERENCE - CZ4-8 INFILTRATION,OFFICE INFIL QUARTER ON,TZ3_CONFERENCE,28.00,100.0,1.110E-002,3.965E-004,2.266E-004,0.476,1.000,0.000,0.000,0.000
 ZoneInfiltration Airflow Stats Nominal, SPACE KITCHEN 189.1-2009 - OFFICE - BREAKROOM - CZ4-8 INFILTRATION,OFFICE INFIL QUARTER ON,TZ4_KITCHEN,21.00,100.0,4.758E-003,2.266E-004,2.266E-004,0.272,1.000,0.000,0.000,0.000
 ZoneInfiltration Airflow Stats Nominal, SPACE BREAKROOM 189.1-2009 - OFFICE - BREAKROOM - CZ4-8 INFILTRATION,OFFICE INFIL QUARTER ON,TZ6_BREAKROOM,16.00,100.0,9.063E-003,5.664E-004,2.266E-004,0.680,1.000,0.000,0.000,0.000
 ZoneInfiltration Airflow Stats Nominal, SPACE OFFICEM 189.1-2009 - OFFICE - CLOSEDOFFICE - CZ4-8 INFILTRATION 1,OFFICE INFIL QUARTER ON,TZ5_OFFICEM,62.00,100.0,2.560E-002,4.129E-004,2.266E-004,0.496,1.000,0.000,0.000,0.000
 ZoneInfiltration Airflow Stats Nominal, SPACE NO HVAC 1 189.1-2009 - OFFICE - CORRIDOR - CZ4-8 INFILTRATION,OFFICE INFIL QUARTER ON,TZ7_NO,18.50,100.0,1.821E-002,9.842E-004,2.266E-004,1.181,1.000,0.000,0.000,0.000
 ZoneInfiltration Airflow Stats Nominal, SPACE NO HVAC 3 189.1-2009 - OFFICE - CORRIDOR - CZ4-8 INFILTRATION,OFFICE INFIL QUARTER ON,TZ7_NO (3),34.00,100.0,1.518E-002,4.465E-004,2.266E-004,0.536,1.000,0.000,0.000,0.000
 ZoneInfiltration Airflow Stats Nominal, SPACE NO HVAC 2 189.1-2009 - OFFICE - CORRIDOR - CZ4-8 INFILTRATION,OFFICE INFIL QUARTER ON,TZ7_NO (2),42.00,100.0,1.427E-002,3.399E-004,2.266E-004,0.408,1.000,0.000,0.000,0.000
! <AirFlow Model>, Simple
 AirFlow Model, Simple
! <RoomAir Model>, Zone Name, Mixing/Mundt/UCSDDV/UCSDCV/UCSDUFI/UCSDUFE/User Defined
RoomAir Model,TZ1_OFFICEL,Mixing/Well-Stirred
RoomAir Model,TZ2_OFFICES,Mixing/Well-Stirred
RoomAir Model,TZ3_CONFERENCE,Mixing/Well-Stirred
RoomAir Model,TZ4_KITCHEN,Mixing/Well-Stirred
RoomAir Model,TZ5_OFFICEM,Mixing/Well-Stirred
RoomAir Model,TZ6_BREAKROOM,Mixing/Well-Stirred
RoomAir Model,TZ7_NO,Mixing/Well-Stirred
RoomAir Model,TZ7_NO (2),Mixing/Well-Stirred
RoomAir Model,TZ7_NO (3),Mixing/Well-Stirred
! <AirflowNetwork Model:Control>, No Multizone or Distribution/Multizone with Distribution/Multizone without Distribution/Multizone with Distribution only during Fan Operation
AirflowNetwork Model:Control,NoMultizoneOrDistribution
! <Zone Volume Capacitance Multiplier>, Sensible Heat Capacity Multiplier, Moisture Capacity Multiplier, Carbon Dioxide Capacity Multiplier, Generic Contaminant Capacity Multiplier
Zone Volume Capacitance Multiplier,   1.000 ,   1.000,   1.000,   1.000
! <Load Timesteps in Zone Design Calculation Averaging Window>, Value
 Load Timesteps in Zone Design Calculation Averaging Window,    2
! <Heating Sizing Factor Information>, Sizing Factor ID, Value
 Heating Sizing Factor Information, Global,   1.2500    
 Heating Sizing Factor Information, Zone TZ1_OFFICEL,   1.2500    
 Heating Sizing Factor Information, Zone TZ2_OFFICES,   1.2500    
 Heating Sizing Factor Information, Zone TZ3_CONFERENCE,   1.2500    
 Heating Sizing Factor Information, Zone TZ4_KITCHEN,   1.2500    
 Heating Sizing Factor Information, Zone TZ5_OFFICEM,   1.2500    
 Heating Sizing Factor Information, Zone TZ6_BREAKROOM,   1.2500    
! <Cooling Sizing Factor Information>, Sizing Factor ID, Value
 Cooling Sizing Factor Information, Global,   1.1500    
 Cooling Sizing Factor Information, Zone TZ1_OFFICEL,   1.1500    
 Cooling Sizing Factor Information, Zone TZ2_OFFICES,   1.1500    
 Cooling Sizing Factor Information, Zone TZ3_CONFERENCE,   1.1500    
 Cooling Sizing Factor Information, Zone TZ4_KITCHEN,   1.1500    
 Cooling Sizing Factor Information, Zone TZ5_OFFICEM,   1.1500    
 Cooling Sizing Factor Information, Zone TZ6_BREAKROOM,   1.1500    
! <Zone Sizing Information>, Zone Name, Load Type, Calc Des Load {W}, User Des Load {W}, Calc Des Air Flow Rate {m3/s}, User Des Air Flow Rate {m3/s}, Design Day Name, Date/Time of Peak, Temperature at Peak {C}, Humidity Ratio at Peak {kgWater/kgDryAir}, Floor Area {m2}, # Occupants, Calc Outdoor Air Flow Rate {m3/s}, Calc DOAS Heat Addition Rate {W}
 Zone Sizing Information, TZ1_OFFICEL, Cooling, 18960.96223, 21805.10656, 1.41754, 1.63017, MUMBAI-SHIVAJI.INTL.AP APRIL .4% CONDNS DB=>MCWB, 4/21 23:00:00, 31.65000, 1.27472E-002, 124.50000, 100.00000, 0.94389, 0.00000
 Zone Sizing Information, TZ1_OFFICEL, Heating, 0.00000, 0.00000, 0.00000, 0.94389, ,  00:30:00, 31.75000, 1.19130E-002, 124.50000, 100.00000, 0.94389, 0.00000
 Zone Sizing Information, TZ2_OFFICES, Cooling, 17931.55352, 20621.28655, 1.34051, 1.54159, MUMBAI-SHIVAJI.INTL.AP ANN CLG .4% CONDNS DB=>MWB, 5/21 19:00:00, 34.05000, 1.19170E-002, 16.00000, 100.00000, 0.94389, 0.00000
 Zone Sizing Information, TZ2_OFFICES, Heating, 0.00000, 0.00000, 0.00000, 0.94389, ,  00:30:00, 31.75000, 1.19130E-002, 16.00000, 100.00000, 0.94389, 0.00000
 Zone Sizing Information, TZ3_CONFERENCE, Cooling, 9309.50638, 10705.93234, 0.69596, 0.94389, MUMBAI-SHIVAJI.INTL.AP ANN CLG .4% CONDNS DB=>MWB, 5/21 19:00:00, 34.05000, 1.19170E-002, 28.00000, 100.00000, 0.94389, 0.00000
 Zone Sizing Information, TZ3_CONFERENCE, Heating, 0.00000, 0.00000, 0.00000, 0.94389, ,  00:30:00, 31.75000, 1.19130E-002, 28.00000, 100.00000, 0.94389, 0.00000
 Zone Sizing Information, TZ4_KITCHEN, Cooling, 4620.59257, 5313.68146, 0.34542, 0.70792, MUMBAI-SHIVAJI.INTL.AP ANN CLG .4% CONDNS DB=>MWB, 5/21 23:00:00, 32.25000, 1.19139E-002, 21.00000, 100.00000, 0.70792, 0.00000
 Zone Sizing Information, TZ4_KITCHEN, Heating, 0.00000, 0.00000, 0.00000, 0.70792, ,  00:30:00, 31.75000, 1.19130E-002, 21.00000, 100.00000, 0.70792, 0.00000
 Zone Sizing Information, TZ5_OFFICEM, Cooling, 18266.19558, 21006.12492, 1.36558, 1.57041, MUMBAI-SHIVAJI.INTL.AP APRIL .4% CONDNS DB=>MCWB, 4/21 18:00:00, 35.22000, 1.27535E-002, 62.00000, 100.00000, 0.94389, 0.00000
 Zone Sizing Information, TZ5_OFFICEM, Heating, 0.00000, 0.00000, 0.00000, 0.94389, ,  00:30:00, 31.75000, 1.19130E-002, 62.00000, 100.00000, 0.94389, 0.00000
 Zone Sizing Information, TZ6_BREAKROOM, Cooling, 4995.64645, 5744.99342, 0.37347, 0.70792, MUMBAI-SHIVAJI.INTL.AP ANN CLG .4% CONDNS DB=>MWB, 5/21 23:00:00, 32.25000, 1.19139E-002, 16.00000, 100.00000, 0.70792, 0.00000
 Zone Sizing Information, TZ6_BREAKROOM, Heating, 0.00000, 0.00000, 0.00000, 0.70792, ,  00:30:00, 31.75000, 1.19130E-002, 16.00000, 100.00000, 0.70792, 0.00000
! <System Sizing Information>, System Name, Load Type, Peak Load Kind, User Design Capacity, Calc Des Air Flow Rate [m3/s], User Des Air Flow Rate [m3/s], Design Day Name, Date/Time of Peak
 System Sizing Information, PACKAGED ROOFTOP VAV WITH PFP BOXES AND REHEAT, Cooling, Sensible, 175155.74, 7.10190, 7.10190, MUMBAI-SHIVAJI.INTL.AP MARCH .4% CONDNS DB=>MCWB, 3/21 00:00:00
 System Sizing Information, PACKAGED ROOFTOP VAV WITH PFP BOXES AND REHEAT, Heating, Sensible, 0.00, 5.19142, 5.19142, ,  00:00:00
 System Sizing Information, PACKAGED ROOFTOP VAV WITH PFP BOXES AND REHEAT 1, Cooling, Sensible, 175155.74, 7.10190, 7.10190, MUMBAI-SHIVAJI.INTL.AP MARCH .4% CONDNS DB=>MCWB, 3/21 00:00:00
 System Sizing Information, PACKAGED ROOFTOP VAV WITH PFP BOXES AND REHEAT 1, Heating, Sensible, 0.00, 5.19142, 5.19142, ,  00:00:00
! <Component Sizing Information>, Component Type, Component Name, Input Field Description, Value
 Component Sizing Information, AirTerminal:SingleDuct:VAV:NoReheat, VAV NO RHT, Design Size Maximum Air Flow Rate [m3/s], 1.63017
 Component Sizing Information, AirTerminal:SingleDuct:VAV:NoReheat, VAV NO RHT, Design Size Constant Minimum Air Flow Fraction, 5.81959E-002
 Component Sizing Information, AirTerminal:SingleDuct:VAV:NoReheat, VAV NO RHT, User-Specified Constant Minimum Air Flow Fraction, 0.30000
 Component Sizing Information, AirTerminal:SingleDuct:VAV:NoReheat, VAV NO RHT, Design Size Minimum Air Flow Rate [m3/s], 0.48905
 Component Sizing Information, AirTerminal:SingleDuct:VAV:NoReheat, VAV NO RHT 6, Design Size Maximum Air Flow Rate [m3/s], 1.63017
 Component Sizing Information, AirTerminal:SingleDuct:VAV:NoReheat, VAV NO RHT 6, Design Size Constant Minimum Air Flow Fraction, 5.81959E-002
 Component Sizing Information, AirTerminal:SingleDuct:VAV:NoReheat, VAV NO RHT 6, User-Specified Constant Minimum Air Flow Fraction, 0.30000
 Component Sizing Information, AirTerminal:SingleDuct:VAV:NoReheat, VAV NO RHT 6, Design Size Minimum Air Flow Rate [m3/s], 0.48905
 Component Sizing Information, AirTerminal:SingleDuct:VAV:NoReheat, VAV NO RHT 1, Design Size Maximum Air Flow Rate [m3/s], 1.54159
 Component Sizing Information, AirTerminal:SingleDuct:VAV:NoReheat, VAV NO RHT 1, Design Size Constant Minimum Air Flow Fraction, 7.90873E-003
 Component Sizing Information, AirTerminal:SingleDuct:VAV:NoReheat, VAV NO RHT 1, User-Specified Constant Minimum Air Flow Fraction, 0.30000
 Component Sizing Information, AirTerminal:SingleDuct:VAV:NoReheat, VAV NO RHT 1, Design Size Minimum Air Flow Rate [m3/s], 0.46248
 Component Sizing Information, AirTerminal:SingleDuct:VAV:NoReheat, VAV NO RHT 7, Design Size Maximum Air Flow Rate [m3/s], 1.54159
 Component Sizing Information, AirTerminal:SingleDuct:VAV:NoReheat, VAV NO RHT 7, Design Size Constant Minimum Air Flow Fraction, 7.90873E-003
 Component Sizing Information, AirTerminal:SingleDuct:VAV:NoReheat, VAV NO RHT 7, User-Specified Constant Minimum Air Flow Fraction, 0.30000
 Component Sizing Information, AirTerminal:SingleDuct:VAV:NoReheat, VAV NO RHT 7, Design Size Minimum Air Flow Rate [m3/s], 0.46248
 Component Sizing Information, AirTerminal:SingleDuct:VAV:NoReheat, VAV NO RHT 2, Design Size Maximum Air Flow Rate [m3/s], 0.94389
 Component Sizing Information, AirTerminal:SingleDuct:VAV:NoReheat, VAV NO RHT 2, Design Size Constant Minimum Air Flow Fraction, 2.26042E-002
 Component Sizing Information, AirTerminal:SingleDuct:VAV:NoReheat, VAV NO RHT 2, User-Specified Constant Minimum Air Flow Fraction, 0.30000
 Component Sizing Information, AirTerminal:SingleDuct:VAV:NoReheat, VAV NO RHT 2, Design Size Minimum Air Flow Rate [m3/s], 0.28317
 Component Sizing Information, AirTerminal:SingleDuct:VAV:NoReheat, VAV NO RHT 8, Design Size Maximum Air Flow Rate [m3/s], 0.94389
 Component Sizing Information, AirTerminal:SingleDuct:VAV:NoReheat, VAV NO RHT 8, Design Size Constant Minimum Air Flow Fraction, 2.26042E-002
 Component Sizing Information, AirTerminal:SingleDuct:VAV:NoReheat, VAV NO RHT 8, User-Specified Constant Minimum Air Flow Fraction, 0.30000
 Component Sizing Information, AirTerminal:SingleDuct:VAV:NoReheat, VAV NO RHT 8, Design Size Minimum Air Flow Rate [m3/s], 0.28317
 Component Sizing Information, AirTerminal:SingleDuct:VAV:NoReheat, VAV NO RHT 3, Design Size Maximum Air Flow Rate [m3/s], 0.70792
 Component Sizing Information, AirTerminal:SingleDuct:VAV:NoReheat, VAV NO RHT 3, Design Size Constant Minimum Air Flow Fraction, 2.26042E-002
 Component Sizing Information, AirTerminal:SingleDuct:VAV:NoReheat, VAV NO RHT 3, User-Specified Constant Minimum Air Flow Fraction, 0.30000
 Component Sizing Information, AirTerminal:SingleDuct:VAV:NoReheat, VAV NO RHT 3, Design Size Minimum Air Flow Rate [m3/s], 0.21238
 Component Sizing Information, AirTerminal:SingleDuct:VAV:NoReheat, VAV NO RHT 9, Design Size Maximum Air Flow Rate [m3/s], 0.70792
 Component Sizing Information, AirTerminal:SingleDuct:VAV:NoReheat, VAV NO RHT 9, Design Size Constant Minimum Air Flow Fraction, 2.26042E-002
 Component Sizing Information, AirTerminal:SingleDuct:VAV:NoReheat, VAV NO RHT 9, User-Specified Constant Minimum Air Flow Fraction, 0.30000
 Component Sizing Information, AirTerminal:SingleDuct:VAV:NoReheat, VAV NO RHT 9, Design Size Minimum Air Flow Rate [m3/s], 0.21238
 Component Sizing Information, AirTerminal:SingleDuct:VAV:NoReheat, VAV NO RHT 4, Design Size Maximum Air Flow Rate [m3/s], 1.57041
 Component Sizing Information, AirTerminal:SingleDuct:VAV:NoReheat, VAV NO RHT 4, Design Size Constant Minimum Air Flow Fraction, 3.00838E-002
 Component Sizing Information, AirTerminal:SingleDuct:VAV:NoReheat, VAV NO RHT 4, User-Specified Constant Minimum Air Flow Fraction, 0.30000
 Component Sizing Information, AirTerminal:SingleDuct:VAV:NoReheat, VAV NO RHT 4, Design Size Minimum Air Flow Rate [m3/s], 0.47112
 Component Sizing Information, AirTerminal:SingleDuct:VAV:NoReheat, VAV NO RHT 10, Design Size Maximum Air Flow Rate [m3/s], 1.57041
 Component Sizing Information, AirTerminal:SingleDuct:VAV:NoReheat, VAV NO RHT 10, Design Size Constant Minimum Air Flow Fraction, 3.00838E-002
 Component Sizing Information, AirTerminal:SingleDuct:VAV:NoReheat, VAV NO RHT 10, User-Specified Constant Minimum Air Flow Fraction, 0.30000
 Component Sizing Information, AirTerminal:SingleDuct:VAV:NoReheat, VAV NO RHT 10, Design Size Minimum Air Flow Rate [m3/s], 0.47112
 Component Sizing Information, AirTerminal:SingleDuct:VAV:NoReheat, VAV NO RHT 5, Design Size Maximum Air Flow Rate [m3/s], 0.70792
 Component Sizing Information, AirTerminal:SingleDuct:VAV:NoReheat, VAV NO RHT 5, Design Size Constant Minimum Air Flow Fraction, 1.72223E-002
 Component Sizing Information, AirTerminal:SingleDuct:VAV:NoReheat, VAV NO RHT 5, User-Specified Constant Minimum Air Flow Fraction, 0.30000
 Component Sizing Information, AirTerminal:SingleDuct:VAV:NoReheat, VAV NO RHT 5, Design Size Minimum Air Flow Rate [m3/s], 0.21238
 Component Sizing Information, AirTerminal:SingleDuct:VAV:NoReheat, VAV NO RHT 11, Design Size Maximum Air Flow Rate [m3/s], 0.70792
 Component Sizing Information, AirTerminal:SingleDuct:VAV:NoReheat, VAV NO RHT 11, Design Size Constant Minimum Air Flow Fraction, 1.72223E-002
 Component Sizing Information, AirTerminal:SingleDuct:VAV:NoReheat, VAV NO RHT 11, User-Specified Constant Minimum Air Flow Fraction, 0.30000
 Component Sizing Information, AirTerminal:SingleDuct:VAV:NoReheat, VAV NO RHT 11, Design Size Minimum Air Flow Rate [m3/s], 0.21238
 Component Sizing Information, AirLoopHVAC, PACKAGED ROOFTOP VAV WITH PFP BOXES AND REHEAT, Sum of Air Terminal Maximum Heating Flow Rates [m3/s], 2.13057
 Component Sizing Information, AirLoopHVAC, PACKAGED ROOFTOP VAV WITH PFP BOXES AND REHEAT, Sum of Air Terminal Minimum Heating Flow Rates [m3/s], 2.13057
 Component Sizing Information, AirLoopHVAC, PACKAGED ROOFTOP VAV WITH PFP BOXES AND REHEAT, Sum of Air Terminal Maximum Flow Rates [m3/s], 7.10190
 Component Sizing Information, AirLoopHVAC, PACKAGED ROOFTOP VAV WITH PFP BOXES AND REHEAT, Adjusted Heating Design Air Flow Rate [m3/s], 5.19142
 Component Sizing Information, AirLoopHVAC, PACKAGED ROOFTOP VAV WITH PFP BOXES AND REHEAT, Adjusted Cooling Design Air Flow Rate [m3/s], 7.10190
 Component Sizing Information, AirLoopHVAC, PACKAGED ROOFTOP VAV WITH PFP BOXES AND REHEAT, Adjusted Main Design Air Flow Rate [m3/s], 7.10190
 Component Sizing Information, AirLoopHVAC, PACKAGED ROOFTOP VAV WITH PFP BOXES AND REHEAT, User Heating Air Flow Ratio [], 0.30000
 Component Sizing Information, AirLoopHVAC, PACKAGED ROOFTOP VAV WITH PFP BOXES AND REHEAT, Calculated Heating Air Flow Ratio [], 0.73099
 Component Sizing Information, AirLoopHVAC, PACKAGED ROOFTOP VAV WITH PFP BOXES AND REHEAT 1, Sum of Air Terminal Maximum Heating Flow Rates [m3/s], 2.13057
 Component Sizing Information, AirLoopHVAC, PACKAGED ROOFTOP VAV WITH PFP BOXES AND REHEAT 1, Sum of Air Terminal Minimum Heating Flow Rates [m3/s], 2.13057
 Component Sizing Information, AirLoopHVAC, PACKAGED ROOFTOP VAV WITH PFP BOXES AND REHEAT 1, Sum of Air Terminal Maximum Flow Rates [m3/s], 7.10190
 Component Sizing Information, AirLoopHVAC, PACKAGED ROOFTOP VAV WITH PFP BOXES AND REHEAT 1, Adjusted Heating Design Air Flow Rate [m3/s], 5.19142
 Component Sizing Information, AirLoopHVAC, PACKAGED ROOFTOP VAV WITH PFP BOXES AND REHEAT 1, Adjusted Cooling Design Air Flow Rate [m3/s], 7.10190
 Component Sizing Information, AirLoopHVAC, PACKAGED ROOFTOP VAV WITH PFP BOXES AND REHEAT 1, Adjusted Main Design Air Flow Rate [m3/s], 7.10190
 Component Sizing Information, AirLoopHVAC, PACKAGED ROOFTOP VAV WITH PFP BOXES AND REHEAT 1, User Heating Air Flow Ratio [], 0.30000
 Component Sizing Information, AirLoopHVAC, PACKAGED ROOFTOP VAV WITH PFP BOXES AND REHEAT 1, Calculated Heating Air Flow Ratio [], 0.73099
 Component Sizing Information, AirLoopHVAC, PACKAGED ROOFTOP VAV WITH PFP BOXES AND REHEAT, Design Supply Air Flow Rate [m3/s], 7.10190
 Component Sizing Information, AirLoopHVAC, PACKAGED ROOFTOP VAV WITH PFP BOXES AND REHEAT 1, Design Supply Air Flow Rate [m3/s], 7.10190
!<Controller:MechanicalVentilation>,Name,Availability Schedule Name,Demand Controlled Ventilation {Yes/No},System Outdoor Air Method,Zone Maximum Outdoor Air Fraction,Number of Zones,Zone Name,DSOA Name,DSZAD Name
 Controller:MechanicalVentilation,CONTROLLER MECHANICAL VENTILATION 1,ALWAYS ON DISCRETE,No,ZoneSum,1.00,6,TZ1_OFFICEL,189.1-2009 - OFFICE - CLOSEDOFFICE - CZ4-8 VENTILATION,,TZ2_OFFICES,189.1-2009 - OFFICE - CLOSEDOFFICE - CZ4-8 VENTILATION,,TZ3_CONFERENCE,189.1-2009 - OFFICE - CONFERENCE - CZ4-8 VENTILATION,,TZ4_KITCHEN,189.1-2009 - OFFICE - BREAKROOM - CZ4-8 VENTILATION,,TZ5_OFFICEM,189.1-2009 - OFFICE - CLOSEDOFFICE - CZ4-8 VENTILATION,,TZ6_BREAKROOM,189.1-2009 - OFFICE - BREAKROOM - CZ4-8 VENTILATION,
 Controller:MechanicalVentilation,CONTROLLER MECHANICAL VENTILATION 2,ALWAYS ON DISCRETE,No,ZoneSum,1.00,6,TZ1_OFFICEL,189.1-2009 - OFFICE - CLOSEDOFFICE - CZ4-8 VENTILATION,,TZ2_OFFICES,189.1-2009 - OFFICE - CLOSEDOFFICE - CZ4-8 VENTILATION,,TZ3_CONFERENCE,189.1-2009 - OFFICE - CONFERENCE - CZ4-8 VENTILATION,,TZ4_KITCHEN,189.1-2009 - OFFICE - BREAKROOM - CZ4-8 VENTILATION,,TZ5_OFFICEM,189.1-2009 - OFFICE - CLOSEDOFFICE - CZ4-8 VENTILATION,,TZ6_BREAKROOM,189.1-2009 - OFFICE - BREAKROOM - CZ4-8 VENTILATION,
 Component Sizing Information, Controller:OutdoorAir, CONTROLLER OUTDOOR AIR 1, Maximum Outdoor Air Flow Rate [m3/s], 7.10190
 Component Sizing Information, Coil:Cooling:DX:TwoSpeed, COIL COOLING DX TWO SPEED 1, Design Size High Speed Rated Air Flow Rate [m3/s], 7.10190
 Component Sizing Information, Coil:Cooling:DX:TwoSpeed, COIL COOLING DX TWO SPEED 1, Design Size High Speed Gross Rated Total Cooling Capacity [W], 176357.20969
 Component Sizing Information, Coil:Cooling:DX:TwoSpeed, COIL COOLING DX TWO SPEED 1, Design Size High Speed Rated Sensible Heat Ratio, 0.70108
 Component Sizing Information, Coil:Cooling:DX:TwoSpeed, COIL COOLING DX TWO SPEED 1, Design Size Low Speed Rated Air Flow Rate [m3/s], 2.36706
 Component Sizing Information, Coil:Cooling:DX:TwoSpeed, COIL COOLING DX TWO SPEED 1, Design Size Low Speed Gross Rated Total Cooling Capacity [W], 58779.85799
 Component Sizing Information, Coil:Cooling:DX:TwoSpeed, COIL COOLING DX TWO SPEED 1, Design Size Low Speed Gross Rated Sensible Heat Ratio, 0.70108
 Component Sizing Information, Fan:VariableVolume, FAN VARIABLE VOLUME 1, Design Size Maximum Flow Rate [m3/s], 7.10190
! <VAV DX Cooling Coil Standard Rating Information>, DX Coil Type, DX Coil Name, Fan Type, Fan Name, Standard Net Cooling Capacity {W}, Standard Net Cooling Capacity {Btu/h}, IEER {Btu/W-h}, COP 100% Capacity {W/W}, COP 75% Capacity {W/W}, COP 50% Capacity {W/W}, COP 25% Capacity {W/W}, EER 100% Capacity {Btu/W-h}, EER 75% Capacity {Btu/W-h}, EER 50% Capacity {Btu/W-h}, EER 25% Capacity {Btu/W-h}, Supply Air Flow 100% {kg/s}, Supply Air Flow 75% {kg/s},Supply Air Flow 50% {kg/s},Supply Air Flow 25% {kg/s}
 VAV DX Cooling Coil Standard Rating Information, Coil:Cooling:DX:TwoSpeed,COIL COOLING DX TWO SPEED 1,Fan:VariableVolume,FAN VARIABLE VOLUME 1,166534.49,568239.27,13.61,3.09,3.76,4.36,4.56,10.55,12.82,14.89,15.57,8.1278,6.2922,4.1309,1.7478,
 Component Sizing Information, Controller:OutdoorAir, CONTROLLER OUTDOOR AIR 2, Maximum Outdoor Air Flow Rate [m3/s], 7.10190
 Component Sizing Information, Coil:Heating:DX:SingleSpeed, 1 SPD DX HTG COIL, Design Size Rated Air Flow Rate [m3/s], 7.10190
 Component Sizing Information, Coil:Heating:DX:SingleSpeed, 1 SPD DX HTG COIL, Design Size Gross Rated Heating Capacity [W], 176357.20969
 Component Sizing Information, Coil:Heating:DX:SingleSpeed, 1 SPD DX HTG COIL, Design Size Resistive Defrost Heater Capacity [W], 176357.20969
 Component Sizing Information, Coil:Heating:DX:SingleSpeed, 1 SPD DX HTG COIL, User-Specified Resistive Defrost Heater Capacity [W], 2000.00000
! <DX Heating Coil Standard Rating Information>, Component Type, Component Name, High Temperature Heating (net) Rating Capacity {W}, Low Temperature Heating (net) Rating Capacity {W}, HSPF {Btu/W-h}, Region Number
 DX Heating Coil Standard Rating Information, Coil:Heating:DX:SingleSpeed, 1 SPD DX HTG COIL, 144200.5, 139302.2, 11.45, 4
 DX Heating Coil Standard Rating Information, Coil:Heating:DX:SingleSpeed, 1 SPD DX HTG COIL, 145344.6, 140446.3, 12.33, 4
 Component Sizing Information, Fan:VariableVolume, FAN VARIABLE VOLUME 2, Design Size Maximum Flow Rate [m3/s], 7.10190
! <Environment>,Environment Name,Environment Type, Start Date, End Date, Start DayOfWeek, Duration {#days}, Source:Start DayOfWeek,  Use Daylight Saving, Use Holidays, Apply Weekend Holiday Rule,  Use Rain Values, Use Snow Values, Sky Temperature Model
! <Environment:Special Days>, Special Day Name, Special Day Type, Source, Start Date, Duration {#days}
! <Environment:Daylight Saving>, Daylight Saving Indicator, Source, Start Date, End Date
! <Environment:WarmupDays>, NumberofWarmupDays
Environment,MUMBAI-SHIVAJI.INTL.AP ANN CLG .4% CONDNS DB=>MWB,SizingPeriod:DesignDay,05/21,05/21,SummerDesignDay,1,N/A,N/A,N/A,N/A,N/A,N/A,Clark and Allen
Environment:Daylight Saving,No,SizingPeriod:DesignDay
! <Environment:Design Day Data>, Max Dry-Bulb Temp {C}, Temp Range {dC}, Temp Range Ind Type, Hum Ind Type, Hum Ind Value at Max Temp, Hum Ind Units, Pressure {Pa}, Wind Direction {deg CW from N}, Wind Speed {m/s}, Clearness, Rain, Snow
! <Environment:Design Day Misc>,DayOfYear,ASHRAE A Coeff,ASHRAE B Coeff,ASHRAE C Coeff,Solar Constant-Annual Variation,Eq of Time {minutes}, Solar Declination Angle {deg}, Solar Model
Environment:Design Day Data,36.00,5.00,DefaultMultipliers,Wetbulb,22.70,{C},101189,300,3.7,0.00,No,No
Environment:Design Day Misc,141,1102.7,0.1968,0.1213,1.0,3.61,20.0,ASHRAETau
