! Program Version,EnergyPlus, Version 22.2.0-c249759bad, YMD=2024.07.10 23:28,
! Output:Meter Objects (applicable to this run)
Output:Meter,Electricity:Facility,hourly; !- [J]
Output:Meter:Cumulative,Electricity:Facility,hourly; !- [J]
Output:Meter,Electricity:Building,hourly; !- [J]
Output:Meter:Cumulative,Electricity:Building,hourly; !- [J]
Output:Meter,Electricity:Zone:TZ1_OFFICEL,hourly; !- [J]
Output:Meter:Cumulative,Electricity:Zone:TZ1_OFFICEL,hourly; !- [J]
Output:Meter,Electricity:SpaceType:SPACETYPE-OFFICEL,hourly; !- [J]
Output:Meter:Cumulative,Electricity:SpaceType:SPACETYPE-OFFICEL,hourly; !- [J]
Output:Meter,InteriorLights:Electricity,hourly; !- [J]
Output:Meter:Cumulative,InteriorLights:Electricity,hourly; !- [J]
Output:Meter,InteriorLights:Electricity:Zone:TZ1_OFFICEL,hourly; !- [J]
Output:Meter:Cumulative,InteriorLights:Electricity:Zone:TZ1_OFFICEL,hourly; !- [J]
Output:Meter,InteriorLights:Electricity:SpaceType:SPACETYPE-OFFICEL,hourly; !- [J]
Output:Meter:Cumulative,InteriorLights:Electricity:SpaceType:SPACETYPE-OFFICEL,hourly; !- [J]
Output:Meter,General:InteriorLights:Electricity,hourly; !- [J]
Output:Meter:Cumulative,General:InteriorLights:Electricity,hourly; !- [J]
Output:Meter,General:InteriorLights:Electricity:Zone:TZ1_OFFICEL,hourly; !- [J]
Output:Meter:Cumulative,General:InteriorLights:Electricity:Zone:TZ1_OFFICEL,hourly; !- [J]
Output:Meter,General:InteriorLights:Electricity:SpaceType:SPACETYPE-OFFICEL,hourly; !- [J]
Output:Meter:Cumulative,General:InteriorLights:Electricity:SpaceType:SPACETYPE-OFFICEL,hourly; !- [J]
Output:Meter,Electricity:Zone:TZ2_OFFICES,hourly; !- [J]
Output:Meter:Cumulative,Electricity:Zone:TZ2_OFFICES,hourly; !- [J]
Output:Meter,Electricity:SpaceType:SPACETYPE-OFFICES,hourly; !- [J]
Output:Meter:Cumulative,Electricity:SpaceType:SPACETYPE-OFFICES,hourly; !- [J]
Output:Meter,InteriorLights:Electricity:Zone:TZ2_OFFICES,hourly; !- [J]
Output:Meter:Cumulative,InteriorLights:Electricity:Zone:TZ2_OFFICES,hourly; !- [J]
Output:Meter,InteriorLights:Electricity:SpaceType:SPACETYPE-OFFICES,hourly; !- [J]
Output:Meter:Cumulative,InteriorLights:Electricity:SpaceType:SPACETYPE-OFFICES,hourly; !- [J]
Output:Meter,General:InteriorLights:Electricity:Zone:TZ2_OFFICES,hourly; !- [J]
Output:Meter:Cumulative,General:InteriorLights:Electricity:Zone:TZ2_OFFICES,hourly; !- [J]
Output:Meter,General:InteriorLights:Electricity:SpaceType:SPACETYPE-OFFICES,hourly; !- [J]
Output:Meter:Cumulative,General:InteriorLights:Electricity:SpaceType:SPACETYPE-OFFICES,hourly; !- [J]
Output:Meter,Electricity:Zone:TZ3_CONFERENCE,hourly; !- [J]
Output:Meter:Cumulative,Electricity:Zone:TZ3_CONFERENCE,hourly; !- [J]
Output:Meter,Electricity:SpaceType:SPACETYPE-CONFERENCE,hourly; !- [J]
Output:Meter:Cumulative,Electricity:SpaceType:SPACETYPE-CONFERENCE,hourly; !- [J]
Output:Meter,InteriorLights:Electricity:Zone:TZ3_CONFERENCE,hourly; !- [J]
Output:Meter:Cumulative,InteriorLights:Electricity:Zone:TZ3_CONFERENCE,hourly; !- [J]
Output:Meter,InteriorLights:Electricity:SpaceType:SPACETYPE-CONFERENCE,hourly; !- [J]
Output:Meter:Cumulative,InteriorLights:Electricity:SpaceType:SPACETYPE-CONFERENCE,hourly; !- [J]
Output:Meter,General:InteriorLights:Electricity:Zone:TZ3_CONFERENCE,hourly; !- [J]
Output:Meter:Cumulative,General:InteriorLights:Electricity:Zone:TZ3_CONFERENCE,hourly; !- [J]
Output:Meter,General:InteriorLights:Electricity:SpaceType:SPACETYPE-CONFERENCE,hourly; !- [J]
Output:Meter:Cumulative,General:InteriorLights:Electricity:SpaceType:SPACETYPE-CONFERENCE,hourly; !- [J]
Output:Meter,Electricity:Zone:TZ4_KITCHEN,hourly; !- [J]
Output:Meter:Cumulative,Electricity:Zone:TZ4_KITCHEN,hourly; !- [J]
Output:Meter,Electricity:SpaceType:SPACETYPE-BREAKROOM,hourly; !- [J]
Output:Meter:Cumulative,Electricity:SpaceType:SPACETYPE-BREAKROOM,hourly; !- [J]
Output:Meter,InteriorLights:Electricity:Zone:TZ4_KITCHEN,hourly; !- [J]
Output:Meter:Cumulative,InteriorLights:Electricity:Zone:TZ4_KITCHEN,hourly; !- [J]
Output:Meter,InteriorLights:Electricity:SpaceType:SPACETYPE-BREAKROOM,hourly; !- [J]
Output:Meter:Cumulative,InteriorLights:Electricity:SpaceType:SPACETYPE-BREAKROOM,hourly; !- [J]
Output:Meter,General:InteriorLights:Electricity:Zone:TZ4_KITCHEN,hourly; !- [J]
Output:Meter:Cumulative,General:InteriorLights:Electricity:Zone:TZ4_KITCHEN,hourly; !- [J]
Output:Meter,General:InteriorLights:Electricity:SpaceType:SPACETYPE-BREAKROOM,hourly; !- [J]
Output:Meter:Cumulative,General:InteriorLights:Electricity:SpaceType:SPACETYPE-BREAKROOM,hourly; !- [J]
Output:Meter,Electricity:Zone:TZ6_BREAKROOM,hourly; !- [J]
Output:Meter:Cumulative,Electricity:Zone:TZ6_BREAKROOM,hourly; !- [J]
Output:Meter,InteriorLights:Electricity:Zone:TZ6_BREAKROOM,hourly; !- [J]
Output:Meter:Cumulative,InteriorLights:Electricity:Zone:TZ6_BREAKROOM,hourly; !- [J]
Output:Meter,General:InteriorLights:Electricity:Zone:TZ6_BREAKROOM,hourly; !- [J]
Output:Meter:Cumulative,General:InteriorLights:Electricity:Zone:TZ6_BREAKROOM,hourly; !- [J]
Output:Meter,Electricity:Zone:TZ5_OFFICEM,hourly; !- [J]
Output:Meter:Cumulative,Electricity:Zone:TZ5_OFFICEM,hourly; !- [J]
Output:Meter,Electricity:SpaceType:SPACETYPE-OFFICEM,hourly; !- [J]
Output:Meter:Cumulative,Electricity:SpaceType:SPACETYPE-OFFICEM,hourly; !- [J]
Output:Meter,InteriorLights:Electricity:Zone:TZ5_OFFICEM,hourly; !- [J]
Output:Meter:Cumulative,InteriorLights:Electricity:Zone:TZ5_OFFICEM,hourly; !- [J]
Output:Meter,InteriorLights:Electricity:SpaceType:SPACETYPE-OFFICEM,hourly; !- [J]
Output:Meter:Cumulative,InteriorLights:Electricity:SpaceType:SPACETYPE-OFFICEM,hourly; !- [J]
Output:Meter,General:InteriorLights:Electricity:Zone:TZ5_OFFICEM,hourly; !- [J]
Output:Meter:Cumulative,General:InteriorLights:Electricity:Zone:TZ5_OFFICEM,hourly; !- [J]
Output:Meter,General:InteriorLights:Electricity:SpaceType:SPACETYPE-OFFICEM,hourly; !- [J]
Output:Meter:Cumulative,General:InteriorLights:Electricity:SpaceType:SPACETYPE-OFFICEM,hourly; !- [J]
Output:Meter,Electricity:Zone:TZ7_NO,hourly; !- [J]
Output:Meter:Cumulative,Electricity:Zone:TZ7_NO,hourly; !- [J]
Output:Meter,Electricity:SpaceType:SPACETYPE-CORRIDOR,hourly; !- [J]
Output:Meter:Cumulative,Electricity:SpaceType:SPACETYPE-CORRIDOR,hourly; !- [J]
Output:Meter,InteriorLights:Electricity:Zone:TZ7_NO,hourly; !- [J]
Output:Meter:Cumulative,InteriorLights:Electricity:Zone:TZ7_NO,hourly; !- [J]
Output:Meter,InteriorLights:Electricity:SpaceType:SPACETYPE-CORRIDOR,hourly; !- [J]
Output:Meter:Cumulative,InteriorLights:Electricity:SpaceType:SPACETYPE-CORRIDOR,hourly; !- [J]
Output:Meter,General:InteriorLights:Electricity:Zone:TZ7_NO,hourly; !- [J]
Output:Meter:Cumulative,General:InteriorLights:Electricity:Zone:TZ7_NO,hourly; !- [J]
Output:Meter,General:InteriorLights:Electricity:SpaceType:SPACETYPE-CORRIDOR,hourly; !- [J]
Output:Meter:Cumulative,General:InteriorLights:Electricity:SpaceType:SPACETYPE-CORRIDOR,hourly; !- [J]
Output:Meter,Electricity:Zone:TZ7_NO (3),hourly; !- [J]
Output:Meter:Cumulative,Electricity:Zone:TZ7_NO (3),hourly; !- [J]
Output:Meter,InteriorLights:Electricity:Zone:TZ7_NO (3),hourly; !- [J]
Output:Meter:Cumulative,InteriorLights:Electricity:Zone:TZ7_NO (3),hourly; !- [J]
Output:Meter,General:InteriorLights:Electricity:Zone:TZ7_NO (3),hourly; !- [J]
Output:Meter:Cumulative,General:InteriorLights:Electricity:Zone:TZ7_NO (3),hourly; !- [J]
Output:Meter,Electricity:Zone:TZ7_NO (2),hourly; !- [J]
Output:Meter:Cumulative,Electricity:Zone:TZ7_NO (2),hourly; !- [J]
Output:Meter,InteriorLights:Electricity:Zone:TZ7_NO (2),hourly; !- [J]
Output:Meter:Cumulative,InteriorLights:Electricity:Zone:TZ7_NO (2),hourly; !- [J]
Output:Meter,General:InteriorLights:Electricity:Zone:TZ7_NO (2),hourly; !- [J]
Output:Meter:Cumulative,General:InteriorLights:Electricity:Zone:TZ7_NO (2),hourly; !- [J]
Output:Meter,InteriorEquipment:Electricity,hourly; !- [J]
Output:Meter:Cumulative,InteriorEquipment:Electricity,hourly; !- [J]
Output:Meter,InteriorEquipment:Electricity:Zone:TZ1_OFFICEL,hourly; !- [J]
Output:Meter:Cumulative,InteriorEquipment:Electricity:Zone:TZ1_OFFICEL,hourly; !- [J]
Output:Meter,InteriorEquipment:Electricity:SpaceType:SPACETYPE-OFFICEL,hourly; !- [J]
Output:Meter:Cumulative,InteriorEquipment:Electricity:SpaceType:SPACETYPE-OFFICEL,hourly; !- [J]
Output:Meter,General:InteriorEquipment:Electricity,hourly; !- [J]
Output:Meter:Cumulative,General:InteriorEquipment:Electricity,hourly; !- [J]
Output:Meter,General:InteriorEquipment:Electricity:Zone:TZ1_OFFICEL,hourly; !- [J]
Output:Meter:Cumulative,General:InteriorEquipment:Electricity:Zone:TZ1_OFFICEL,hourly; !- [J]
Output:Meter,General:InteriorEquipment:Electricity:SpaceType:SPACETYPE-OFFICEL,hourly; !- [J]
Output:Meter:Cumulative,General:InteriorEquipment:Electricity:SpaceType:SPACETYPE-OFFICEL,hourly; !- [J]
Output:Meter,InteriorEquipment:Electricity:Zone:TZ2_OFFICES,hourly; !- [J]
Output:Meter:Cumulative,InteriorEquipment:Electricity:Zone:TZ2_OFFICES,hourly; !- [J]
Output:Meter,InteriorEquipment:Electricity:SpaceType:SPACETYPE-OFFICES,hourly; !- [J]
Output:Meter:Cumulative,InteriorEquipment:Electricity:SpaceType:SPACETYPE-OFFICES,hourly; !- [J]
Output:Meter,General:InteriorEquipment:Electricity:Zone:TZ2_OFFICES,hourly; !- [J]
Output:Meter:Cumulative,General:InteriorEquipment:Electricity:Zone:TZ2_OFFICES,hourly; !- [J]
Output:Meter,General:InteriorEquipment:Electricity:SpaceType:SPACETYPE-OFFICES,hourly; !- [J]
Output:Meter:Cumulative,General:InteriorEquipment:Electricity:SpaceType:SPACETYPE-OFFICES,hourly; !- [J]
Output:Meter,InteriorEquipment:Electricity:Zone:TZ3_CONFERENCE,hourly; !- [J]
Output:Meter:Cumulative,InteriorEquipment:Electricity:Zone:TZ3_CONFERENCE,hourly; !- [J]
Output:Meter,InteriorEquipment:Electricity:SpaceType:SPACETYPE-CONFERENCE,hourly; !- [J]
Output:Meter:Cumulative,InteriorEquipment:Electricity:SpaceType:SPACETYPE-CONFERENCE,hourly; !- [J]
Output:Meter,General:InteriorEquipment:Electricity:Zone:TZ3_CONFERENCE,hourly; !- [J]
Output:Meter:Cumulative,General:InteriorEquipment:Electricity:Zone:TZ3_CONFERENCE,hourly; !- [J]
Output:Meter,General:InteriorEquipment:Electricity:SpaceType:SPACETYPE-CONFERENCE,hourly; !- [J]
Output:Meter:Cumulative,General:InteriorEquipment:Electricity:SpaceType:SPACETYPE-CONFERENCE,hourly; !- [J]
Output:Meter,InteriorEquipment:Electricity:Zone:TZ4_KITCHEN,hourly; !- [J]
Output:Meter:Cumulative,InteriorEquipment:Electricity:Zone:TZ4_KITCHEN,hourly; !- [J]
Output:Meter,InteriorEquipment:Electricity:SpaceType:SPACETYPE-BREAKROOM,hourly; !- [J]
Output:Meter:Cumulative,InteriorEquipment:Electricity:SpaceType:SPACETYPE-BREAKROOM,hourly; !- [J]
Output:Meter,General:InteriorEquipment:Electricity:Zone:TZ4_KITCHEN,hourly; !- [J]
Output:Meter:Cumulative,General:InteriorEquipment:Electricity:Zone:TZ4_KITCHEN,hourly; !- [J]
Output:Meter,General:InteriorEquipment:Electricity:SpaceType:SPACETYPE-BREAKROOM,hourly; !- [J]
Output:Meter:Cumulative,General:InteriorEquipment:Electricity:SpaceType:SPACETYPE-BREAKROOM,hourly; !- [J]
Output:Meter,InteriorEquipment:Electricity:Zone:TZ6_BREAKROOM,hourly; !- [J]
Output:Meter:Cumulative,InteriorEquipment:Electricity:Zone:TZ6_BREAKROOM,hourly; !- [J]
Output:Meter,General:InteriorEquipment:Electricity:Zone:TZ6_BREAKROOM,hourly; !- [J]
Output:Meter:Cumulative,General:InteriorEquipment:Electricity:Zone:TZ6_BREAKROOM,hourly; !- [J]
Output:Meter,InteriorEquipment:Electricity:Zone:TZ5_OFFICEM,hourly; !- [J]
Output:Meter:Cumulative,InteriorEquipment:Electricity:Zone:TZ5_OFFICEM,hourly; !- [J]
Output:Meter,InteriorEquipment:Electricity:SpaceType:SPACETYPE-OFFICEM,hourly; !- [J]
Output:Meter:Cumulative,InteriorEquipment:Electricity:SpaceType:SPACETYPE-OFFICEM,hourly; !- [J]
Output:Meter,General:InteriorEquipment:Electricity:Zone:TZ5_OFFICEM,hourly; !- [J]
Output:Meter:Cumulative,General:InteriorEquipment:Electricity:Zone:TZ5_OFFICEM,hourly; !- [J]
Output:Meter,General:InteriorEquipment:Electricity:SpaceType:SPACETYPE-OFFICEM,hourly; !- [J]
Output:Meter:Cumulative,General:InteriorEquipment:Electricity:SpaceType:SPACETYPE-OFFICEM,hourly; !- [J]
Output:Meter,InteriorEquipment:Electricity:Zone:TZ7_NO,hourly; !- [J]
Output:Meter:Cumulative,InteriorEquipment:Electricity:Zone:TZ7_NO,hourly; !- [J]
Output:Meter,InteriorEquipment:Electricity:SpaceType:SPACETYPE-CORRIDOR,hourly; !- [J]
Output:Meter:Cumulative,InteriorEquipment:Electricity:SpaceType:SPACETYPE-CORRIDOR,hourly; !- [J]
Output:Meter,General:InteriorEquipment:Electricity:Zone:TZ7_NO,hourly; !- [J]
Output:Meter:Cumulative,General:InteriorEquipment:Electricity:Zone:TZ7_NO,hourly; !- [J]
Output:Meter,General:InteriorEquipment:Electricity:SpaceType:SPACETYPE-CORRIDOR,hourly; !- [J]
Output:Meter:Cumulative,General:InteriorEquipment:Electricity:SpaceType:SPACETYPE-CORRIDOR,hourly; !- [J]
Output:Meter,InteriorEquipment:Electricity:Zone:TZ7_NO (3),hourly; !- [J]
Output:Meter:Cumulative,InteriorEquipment:Electricity:Zone:TZ7_NO (3),hourly; !- [J]
Output:Meter,General:InteriorEquipment:Electricity:Zone:TZ7_NO (3),hourly; !- [J]
Output:Meter:Cumulative,General:InteriorEquipment:Electricity:Zone:TZ7_NO (3),hourly; !- [J]
Output:Meter,InteriorEquipment:Electricity:Zone:TZ7_NO (2),hourly; !- [J]
Output:Meter:Cumulative,InteriorEquipment:Electricity:Zone:TZ7_NO (2),hourly; !- [J]
Output:Meter,General:InteriorEquipment:Electricity:Zone:TZ7_NO (2),hourly; !- [J]
Output:Meter:Cumulative,General:InteriorEquipment:Electricity:Zone:TZ7_NO (2),hourly; !- [J]
Output:Meter,EnergyTransfer:Facility,hourly; !- [J]
Output:Meter:Cumulative,EnergyTransfer:Facility,hourly; !- [J]
Output:Meter,EnergyTransfer:Building,hourly; !- [J]
Output:Meter:Cumulative,EnergyTransfer:Building,hourly; !- [J]
Output:Meter,EnergyTransfer:Zone:TZ1_OFFICEL,hourly; !- [J]
Output:Meter:Cumulative,EnergyTransfer:Zone:TZ1_OFFICEL,hourly; !- [J]
Output:Meter,Heating:EnergyTransfer,hourly; !- [J]
Output:Meter:Cumulative,Heating:EnergyTransfer,hourly; !- [J]
Output:Meter,Heating:EnergyTransfer:Zone:TZ1_OFFICEL,hourly; !- [J]
Output:Meter:Cumulative,Heating:EnergyTransfer:Zone:TZ1_OFFICEL,hourly; !- [J]
Output:Meter,General:Heating:EnergyTransfer,hourly; !- [J]
Output:Meter:Cumulative,General:Heating:EnergyTransfer,hourly; !- [J]
Output:Meter,General:Heating:EnergyTransfer:Zone:TZ1_OFFICEL,hourly; !- [J]
Output:Meter:Cumulative,General:Heating:EnergyTransfer:Zone:TZ1_OFFICEL,hourly; !- [J]
Output:Meter,Cooling:EnergyTransfer,hourly; !- [J]
Output:Meter:Cumulative,Cooling:EnergyTransfer,hourly; !- [J]
Output:Meter,Cooling:EnergyTransfer:Zone:TZ1_OFFICEL,hourly; !- [J]
Output:Meter:Cumulative,Cooling:EnergyTransfer:Zone:TZ1_OFFICEL,hourly; !- [J]
Output:Meter,General:Cooling:EnergyTransfer,hourly; !- [J]
Output:Meter:Cumulative,General:Cooling:EnergyTransfer,hourly; !- [J]
Output:Meter,General:Cooling:EnergyTransfer:Zone:TZ1_OFFICEL,hourly; !- [J]
Output:Meter:Cumulative,General:Cooling:EnergyTransfer:Zone:TZ1_OFFICEL,hourly; !- [J]
Output:Meter,EnergyTransfer:Zone:TZ2_OFFICES,hourly; !- [J]
Output:Meter:Cumulative,EnergyTransfer:Zone:TZ2_OFFICES,hourly; !- [J]
Output:Meter,Heating:EnergyTransfer:Zone:TZ2_OFFICES,hourly; !- [J]
Output:Meter:Cumulative,Heating:EnergyTransfer:Zone:TZ2_OFFICES,hourly; !- [J]
Output:Meter,General:Heating:EnergyTransfer:Zone:TZ2_OFFICES,hourly; !- [J]
Output:Meter:Cumulative,General:Heating:EnergyTransfer:Zone:TZ2_OFFICES,hourly; !- [J]
Output:Meter,Cooling:EnergyTransfer:Zone:TZ2_OFFICES,hourly; !- [J]
Output:Meter:Cumulative,Cooling:EnergyTransfer:Zone:TZ2_OFFICES,hourly; !- [J]
Output:Meter,General:Cooling:EnergyTransfer:Zone:TZ2_OFFICES,hourly; !- [J]
Output:Meter:Cumulative,General:Cooling:EnergyTransfer:Zone:TZ2_OFFICES,hourly; !- [J]
Output:Meter,EnergyTransfer:Zone:TZ3_CONFERENCE,hourly; !- [J]
Output:Meter:Cumulative,EnergyTransfer:Zone:TZ3_CONFERENCE,hourly; !- [J]
Output:Meter,Heating:EnergyTransfer:Zone:TZ3_CONFERENCE,hourly; !- [J]
Output:Meter:Cumulative,Heating:EnergyTransfer:Zone:TZ3_CONFERENCE,hourly; !- [J]
Output:Meter,General:Heating:EnergyTransfer:Zone:TZ3_CONFERENCE,hourly; !- [J]
Output:Meter:Cumulative,General:Heating:EnergyTransfer:Zone:TZ3_CONFERENCE,hourly; !- [J]
Output:Meter,Cooling:EnergyTransfer:Zone:TZ3_CONFERENCE,hourly; !- [J]
Output:Meter:Cumulative,Cooling:EnergyTransfer:Zone:TZ3_CONFERENCE,hourly; !- [J]
Output:Meter,General:Cooling:EnergyTransfer:Zone:TZ3_CONFERENCE,hourly; !- [J]
Output:Meter:Cumulative,General:Cooling:EnergyTransfer:Zone:TZ3_CONFERENCE,hourly; !- [J]
Output:Meter,EnergyTransfer:Zone:TZ4_KITCHEN,hourly; !- [J]
Output:Meter:Cumulative,EnergyTransfer:Zone:TZ4_KITCHEN,hourly; !- [J]
Output:Meter,Heating:EnergyTransfer:Zone:TZ4_KITCHEN,hourly; !- [J]
Output:Meter:Cumulative,Heating:EnergyTransfer:Zone:TZ4_KITCHEN,hourly; !- [J]
Output:Meter,General:Heating:EnergyTransfer:Zone:TZ4_KITCHEN,hourly; !- [J]
Output:Meter:Cumulative,General:Heating:EnergyTransfer:Zone:TZ4_KITCHEN,hourly; !- [J]
Output:Meter,Cooling:EnergyTransfer:Zone:TZ4_KITCHEN,hourly; !- [J]
Output:Meter:Cumulative,Cooling:EnergyTransfer:Zone:TZ4_KITCHEN,hourly; !- [J]
Output:Meter,General:Cooling:EnergyTransfer:Zone:TZ4_KITCHEN,hourly; !- [J]
Output:Meter:Cumulative,General:Cooling:EnergyTransfer:Zone:TZ4_KITCHEN,hourly; !- [J]
Output:Meter,EnergyTransfer:Zone:TZ5_OFFICEM,hourly; !- [J]
Output:Meter:Cumulative,EnergyTransfer:Zone:TZ5_OFFICEM,hourly; !- [J]
Output:Meter,Heating:EnergyTransfer:Zone:TZ5_OFFICEM,hourly; !- [J]
Output:Meter:Cumulative,Heating:EnergyTransfer:Zone:TZ5_OFFICEM,hourly; !- [J]
Output:Meter,General:Heating:EnergyTransfer:Zone:TZ5_OFFICEM,hourly; !- [J]
Output:Meter:Cumulative,General:Heating:EnergyTransfer:Zone:TZ5_OFFICEM,hourly; !- [J]
Output:Meter,Cooling:EnergyTransfer:Zone:TZ5_OFFICEM,hourly; !- [J]
Output:Meter:Cumulative,Cooling:EnergyTransfer:Zone:TZ5_OFFICEM,hourly; !- [J]
Output:Meter,General:Cooling:EnergyTransfer:Zone:TZ5_OFFICEM,hourly; !- [J]
Output:Meter:Cumulative,General:Cooling:EnergyTransfer:Zone:TZ5_OFFICEM,hourly; !- [J]
Output:Meter,EnergyTransfer:Zone:TZ6_BREAKROOM,hourly; !- [J]
Output:Meter:Cumulative,EnergyTransfer:Zone:TZ6_BREAKROOM,hourly; !- [J]
Output:Meter,Heating:EnergyTransfer:Zone:TZ6_BREAKROOM,hourly; !- [J]
Output:Meter:Cumulative,Heating:EnergyTransfer:Zone:TZ6_BREAKROOM,hourly; !- [J]
Output:Meter,General:Heating:EnergyTransfer:Zone:TZ6_BREAKROOM,hourly; !- [J]
Output:Meter:Cumulative,General:Heating:EnergyTransfer:Zone:TZ6_BREAKROOM,hourly; !- [J]
Output:Meter,Cooling:EnergyTransfer:Zone:TZ6_BREAKROOM,hourly; !- [J]
Output:Meter:Cumulative,Cooling:EnergyTransfer:Zone:TZ6_BREAKROOM,hourly; !- [J]
Output:Meter,General:Cooling:EnergyTransfer:Zone:TZ6_BREAKROOM,hourly; !- [J]
Output:Meter:Cumulative,General:Cooling:EnergyTransfer:Zone:TZ6_BREAKROOM,hourly; !- [J]
Output:Meter,EnergyTransfer:Zone:TZ7_NO,hourly; !- [J]
Output:Meter:Cumulative,EnergyTransfer:Zone:TZ7_NO,hourly; !- [J]
Output:Meter,Heating:EnergyTransfer:Zone:TZ7_NO,hourly; !- [J]
Output:Meter:Cumulative,Heating:EnergyTransfer:Zone:TZ7_NO,hourly; !- [J]
Output:Meter,General:Heating:EnergyTransfer:Zone:TZ7_NO,hourly; !- [J]
Output:Meter:Cumulative,General:Heating:EnergyTransfer:Zone:TZ7_NO,hourly; !- [J]
Output:Meter,Cooling:EnergyTransfer:Zone:TZ7_NO,hourly; !- [J]
Output:Meter:Cumulative,Cooling:EnergyTransfer:Zone:TZ7_NO,hourly; !- [J]
Output:Meter,General:Cooling:EnergyTransfer:Zone:TZ7_NO,hourly; !- [J]
Output:Meter:Cumulative,General:Cooling:EnergyTransfer:Zone:TZ7_NO,hourly; !- [J]
Output:Meter,EnergyTransfer:Zone:TZ7_NO (2),hourly; !- [J]
Output:Meter:Cumulative,EnergyTransfer:Zone:TZ7_NO (2),hourly; !- [J]
Output:Meter,Heating:EnergyTransfer:Zone:TZ7_NO (2),hourly; !- [J]
Output:Meter:Cumulative,Heating:EnergyTransfer:Zone:TZ7_NO (2),hourly; !- [J]
Output:Meter,General:Heating:EnergyTransfer:Zone:TZ7_NO (2),hourly; !- [J]
Output:Meter:Cumulative,General:Heating:EnergyTransfer:Zone:TZ7_NO (2),hourly; !- [J]
Output:Meter,Cooling:EnergyTransfer:Zone:TZ7_NO (2),hourly; !- [J]
Output:Meter:Cumulative,Cooling:EnergyTransfer:Zone:TZ7_NO (2),hourly; !- [J]
Output:Meter,General:Cooling:EnergyTransfer:Zone:TZ7_NO (2),hourly; !- [J]
Output:Meter:Cumulative,General:Cooling:EnergyTransfer:Zone:TZ7_NO (2),hourly; !- [J]
Output:Meter,EnergyTransfer:Zone:TZ7_NO (3),hourly; !- [J]
Output:Meter:Cumulative,EnergyTransfer:Zone:TZ7_NO (3),hourly; !- [J]
Output:Meter,Heating:EnergyTransfer:Zone:TZ7_NO (3),hourly; !- [J]
Output:Meter:Cumulative,Heating:EnergyTransfer:Zone:TZ7_NO (3),hourly; !- [J]
Output:Meter,General:Heating:EnergyTransfer:Zone:TZ7_NO (3),hourly; !- [J]
Output:Meter:Cumulative,General:Heating:EnergyTransfer:Zone:TZ7_NO (3),hourly; !- [J]
Output:Meter,Cooling:EnergyTransfer:Zone:TZ7_NO (3),hourly; !- [J]
Output:Meter:Cumulative,Cooling:EnergyTransfer:Zone:TZ7_NO (3),hourly; !- [J]
Output:Meter,General:Cooling:EnergyTransfer:Zone:TZ7_NO (3),hourly; !- [J]
Output:Meter:Cumulative,General:Cooling:EnergyTransfer:Zone:TZ7_NO (3),hourly; !- [J]
Output:Meter,ElectricityPurchased:Facility,hourly; !- [J]
Output:Meter:Cumulative,ElectricityPurchased:Facility,hourly; !- [J]
Output:Meter,ElectricityPurchased:Plant,hourly; !- [J]
Output:Meter:Cumulative,ElectricityPurchased:Plant,hourly; !- [J]
Output:Meter,Cogeneration:ElectricityPurchased,hourly; !- [J]
Output:Meter:Cumulative,Cogeneration:ElectricityPurchased,hourly; !- [J]
Output:Meter,General:Cogeneration:ElectricityPurchased,hourly; !- [J]
Output:Meter:Cumulative,General:Cogeneration:ElectricityPurchased,hourly; !- [J]
Output:Meter,ElectricitySurplusSold:Facility,hourly; !- [J]
Output:Meter:Cumulative,ElectricitySurplusSold:Facility,hourly; !- [J]
Output:Meter,ElectricitySurplusSold:Plant,hourly; !- [J]
Output:Meter:Cumulative,ElectricitySurplusSold:Plant,hourly; !- [J]
Output:Meter,Cogeneration:ElectricitySurplusSold,hourly; !- [J]
Output:Meter:Cumulative,Cogeneration:ElectricitySurplusSold,hourly; !- [J]
Output:Meter,General:Cogeneration:ElectricitySurplusSold,hourly; !- [J]
Output:Meter:Cumulative,General:Cogeneration:ElectricitySurplusSold,hourly; !- [J]
Output:Meter,ElectricityNet:Facility,hourly; !- [J]
Output:Meter:Cumulative,ElectricityNet:Facility,hourly; !- [J]
Output:Meter,ElectricityNet:Plant,hourly; !- [J]
Output:Meter:Cumulative,ElectricityNet:Plant,hourly; !- [J]
Output:Meter,Cogeneration:ElectricityNet,hourly; !- [J]
Output:Meter:Cumulative,Cogeneration:ElectricityNet,hourly; !- [J]
Output:Meter,General:Cogeneration:ElectricityNet,hourly; !- [J]
Output:Meter:Cumulative,General:Cogeneration:ElectricityNet,hourly; !- [J]
Output:Meter,Electricity:HVAC,hourly; !- [J]
Output:Meter:Cumulative,Electricity:HVAC,hourly; !- [J]
Output:Meter,Fans:Electricity,hourly; !- [J]
Output:Meter:Cumulative,Fans:Electricity,hourly; !- [J]
Output:Meter,General:Fans:Electricity,hourly; !- [J]
Output:Meter:Cumulative,General:Fans:Electricity,hourly; !- [J]
Output:Meter,EnergyTransfer:HVAC,hourly; !- [J]
Output:Meter:Cumulative,EnergyTransfer:HVAC,hourly; !- [J]
Output:Meter,HeatingCoils:EnergyTransfer,hourly; !- [J]
Output:Meter:Cumulative,HeatingCoils:EnergyTransfer,hourly; !- [J]
Output:Meter,Heating:Electricity,hourly; !- [J]
Output:Meter:Cumulative,Heating:Electricity,hourly; !- [J]
Output:Meter,General:Heating:Electricity,hourly; !- [J]
Output:Meter:Cumulative,General:Heating:Electricity,hourly; !- [J]
Output:Meter,CoolingCoils:EnergyTransfer,hourly; !- [J]
Output:Meter:Cumulative,CoolingCoils:EnergyTransfer,hourly; !- [J]
Output:Meter,Cooling:Electricity,hourly; !- [J]
Output:Meter:Cumulative,Cooling:Electricity,hourly; !- [J]
Output:Meter,General:Cooling:Electricity,hourly; !- [J]
Output:Meter:Cumulative,General:Cooling:Electricity,hourly; !- [J]
Output:Meter,Carbon Equivalent:Facility,hourly; !- [kg]
Output:Meter:Cumulative,Carbon Equivalent:Facility,hourly; !- [kg]
Output:Meter,CarbonEquivalentEmissions:Carbon Equivalent,hourly; !- [kg]
Output:Meter:Cumulative,CarbonEquivalentEmissions:Carbon Equivalent,hourly; !- [kg]
